! ----  This file was generated with Climate Studio 2.0.8991.29648

Version,23.1;

Site:GroundTemperature:BuildingSurface,18,18,18,18,18,18,18,18,18,18,18,18;

Site:GroundReflectance,0.2,0.2,0.2,0.2,0.2,0.2,0.2,0.2,0.2,0.2,0.2,0.2;

Site:GroundReflectance:SnowModifier,
  1.0,                     !- Ground Reflected Solar Modifier
  1.0;                     !- Daylighting Ground Reflected Solar Modifier


Site:WeatherStation, 
10, !- Wind Sensor Height Above Ground {m} 
0.22, !- Wind Speed Profile Exponent {} 
370, !- Wind Speed Profile Boundary Layer Thickness {m} 
1.5; !- Air Temperature Sensor Height Above Ground {m}


ZoneAirContaminantBalance,
  Yes,                       !- Carbon Dioxide Concentration
  GlobalCO2,      !- Outdoor Carbon Dioxide Schedule Name
  No,                       !- Generic Contaminant Concentration
  Off; !- Outdoor Generic Contaminant Schedule Name


!-   ===========  ALL OBJECTS IN CLASS: RUNPERIOD ===========

RunPeriod,
  Climate Studio,                 !- Name
  1,                       !- Begin Month
  1,                       !- Begin Day of Month
  , !- Begin Year
  12,                      !- End Month
  31,                      !- End Day of Month
  , !- End Year
  Sunday,          !- Day of Week for Start Day
  No,                     !- Use Weather File Holidays and Special Days
  No,                     !- Use Weather File Daylight Saving Period
  No,                      !- Apply Weekend Holiday Rule
  Yes,                     !- Use Weather File Rain Indicators
  Yes,                     !- Use Weather File Snow Indicators
  No;                      !- Treat Weather as Actual

RunPeriodControl:DaylightSavingTime,2nd Sunday in March, 1st Sunday in November; !2007


!-   ===========  ALL OBJECTS IN CLASS: SIMULATIONCONTROL ===========

SimulationControl,
Yes, !- Do Zone Sizing Calculation
Yes, !- Do System Sizing Calculation
Yes, !- Do Plant Sizing Calculation
No, !- Run Simulation for Sizing Periods
Yes, !- Run Simulation for Weather File Run Periods
No, !- Do HVAC Sizing Simulation for Sizing Periods
2; !- Maximum Number of HVAC Sizing Simulation Passes


!-   ===========  ALL OBJECTS IN CLASS: CONVERGENCELIMITS ===========

ConvergenceLimits,
0, !- Minimum System Timestep (0 = same as zone timestep)
50, !- Maximum HVAC Iterations
3, !- Minimum Plant Iterations
9; !- Maximum Plant Iterations


!-   ===========  ALL OBJECTS IN CLASS: SCHEDULETYPELIMITS ===========

ScheduleTypeLimits,
  Any Number;              !- Name

ScheduleTypeLimits,
  Fraction,                !- Name
  0.0,                     !- Lower Limit Value {A3}
  1.0,                     !- Upper Limit Value {A3}
  CONTINUOUS;              !- Numeric Type

ScheduleTypeLimits,
  Temperature,             !- Name
  -60,                     !- Lower Limit Value
  200,                     !- Upper Limit Value
  CONTINUOUS;              !- Numeric Type

ScheduleTypeLimits,
  AnyNumber,               !- Name
  -1E11,                   !- Lower Limit Value
  1E11,                    !- Upper Limit Value
  CONTINUOUS;              !- Numeric Type

ScheduleTypeLimits,
  Control Type,            !- Name
  0,                       !- Lower Limit Value
  4,                       !- Upper Limit Value
  DISCRETE;                !- Numeric Type

ScheduleTypeLimits,
  On/Off,                  !- Name
  0,                       !- Lower Limit Value
  1,                       !- Upper Limit Value
  DISCRETE;                !- Numeric Type

Schedule:Constant,
  On,                      !- Name
  On/Off,                  !- Schedule Type Limits Name
  1;                       !- Value

Schedule:Constant,
  Off,                     !- Name
  On/Off,                  !- Schedule Type Limits Name
  0;                       !- Value


! -------------------------ERL SENSORS--------------------------

EnergyManagementSystem:Sensor,                                             
  OutdoorTemp, !- Name                                         
  Environment, !- Output:Variable Index Key Name               
  Site Outdoor Air Drybulb Temperature; !- Output:Variable Name

EnergyManagementSystem:Sensor,                                             
  OutdoorRelHumid, !- Name                                         
  Environment, !- Output:Variable Index Key Name               
  Site Outdoor Air Relative Humidity; !- Output:Variable Name

Output:EnergyManagementSystem,
  Verbose,                 !- Actuator Availability Dictionary Reporting
  Verbose,                 !- Internal Variable Availability Dictionary Reporting
  Verbose;                 !- EMS Runtime Language Debug Output Level

! Output:SQLite, Simple;



SizingPeriod:WeatherFileConditionType ,
    Extreme Summer Weather Period for Design, !- Name
    SummerExtreme , !- Period Selection
    SummerDesignDay , !- Day Type
    No, !- Use Weather File Daylight Saving Period
    No; !- Use Weather File Rain and Snow Indicators

SizingPeriod:WeatherFileConditionType ,
    Extreme Winter Weather Period for Design, !- Name
    WinterExtreme , !- Period Selection
    WinterDesignDay , !- Day Type
    No, !- Use Weather File Daylight Saving Period
    No; !- Use Weather File Rain and Snow Indicators

Sizing:Parameters,
    1.5,                     !- Heating Sizing Factor
    1.5;                     !- Cooling Sizing Factor




GlobalGeometryRules,
  LowerLeftCorner,         !- Starting Vertex Position
  CounterClockWise,        !- Vertex Entry Direction
  Relative;                !- Coordinate System

ShadowCalculation,
    PixelCounting,           !- Shading Calculation Method
    Periodic,                !- Shading Calculation Update Frequency Method
    20,                      !- Shading Calculation Update Frequency
    15000,                   !- Maximum Figures in Shadow Overlap Calculations
    ,                        !- Polygon Clipping Algorithm
    512,                     !- Pixel Counting Resolution
    SimpleSkyDiffuseModeling,  !- Sky Diffuse Modeling Algorithm
    Yes,                     !- Output External Shading Calculation Results
    No,                      !- Disable Self-Shading Within Shading Zone Groups
    No;                      !- Disable Self-Shading From Shading Zone Groups to Other Zones

Building,
    Building,                !- Name
    0,        !- North Axis {deg}
    Suburbs,       !- Terrain
    0.04,                    !- Loads Convergence Tolerance Value
    0.25,                     !- Temperature Convergence Tolerance Value {deltaC}
    FullExterior,            !- Solar Distribution
    25,                      !- Maximum Number of Warmup Days
    6;                       !- Minimum Number of Warmup Days



!-   ===========  ALL OBJECTS IN CLASS: HEATBALANCEALGORITHM ===========

HeatBalanceAlgorithm,
    ConductionTransferFunction,  !- Algorithm
    200,                     !- Surface Temperature Upper Limit {C}
    0.1,                     !- Minimum Surface Convection Heat Transfer Coefficient Value {W/m2-K}
    1000;                    !- Maximum Surface Convection Heat Transfer Coefficient Value {W/m2-K}

Timestep,6;

SurfaceConvectionAlgorithm:Inside,TARP;

SurfaceConvectionAlgorithm:Outside,DOE-2;

! ------------ CONSTRUCTIONS 

! defaultConstruction Type: Facade
Construction, defaultConstruction,
defaultMat_0.25_defaultConstruction;

Construction, defaultConstruction_FLIPPED,
defaultMat_0.25_defaultConstruction;



! Materials
!- Material: defaultMat Type: Concrete
Material, defaultMat_0.25_defaultConstruction ,                !- Material name 
 Rough,                                         !- Roughness
 0.25,   !- @defaultConstruction:defaultMat-Thickness@ [m]
 2.3,   !- @defaultConstruction:defaultMat-Conductivity@ [W/m-K]
 2400,   !- @defaultConstruction:defaultMat-Density@ [kg/m3]
 840,   !- @defaultConstruction:defaultMat-SpecificHeat@ [J/kg-K]
 0.9,   !- @defaultConstruction:defaultMat-ThermalEmittance@
 0.7,   !- @defaultConstruction:defaultMat-SolarAbsorptance@
 0.7;   !- @defaultConstruction:defaultMat-VisibleAbsorptance@



! 90.1-2019 Nonresidential CZ 0 Exterior Wall (Mass) Type: Facade
Construction, 90.1-2019 Nonresidential CZ 0 Exterior Wall (Mass),
Stucco_0.025_90.1-2019 Nonresidential CZ 0 Exterior Wall (Mass),
Concrete_0.203_90.1-2019 Nonresidential CZ 0 Exterior Wall (Mass),
Mineral Wool_0.006340168156952033_90.1-2019 Nonresidential CZ 0 Exterior Wall (Mass),
Plaster_0.013_90.1-2019 Nonresidential CZ 0 Exterior Wall (Mass);

Construction, 90.1-2019 Nonresidential CZ 0 Exterior Wall (Mass)_FLIPPED,
Plaster_0.013_90.1-2019 Nonresidential CZ 0 Exterior Wall (Mass),
Mineral Wool_0.006340168156952033_90.1-2019 Nonresidential CZ 0 Exterior Wall (Mass),
Concrete_0.203_90.1-2019 Nonresidential CZ 0 Exterior Wall (Mass),
Stucco_0.025_90.1-2019 Nonresidential CZ 0 Exterior Wall (Mass);



! Materials
!- Material: Stucco Type: Plaster
Material, Stucco_0.025_90.1-2019 Nonresidential CZ 0 Exterior Wall (Mass) ,                !- Material name 
 Smooth,                                         !- Roughness
 0.025,   !- @90.1-2019 Nonresidential CZ 0 Exterior Wall (Mass):Stucco-Thickness@ [m]
 0.72,   !- @90.1-2019 Nonresidential CZ 0 Exterior Wall (Mass):Stucco-Conductivity@ [W/m-K]
 1856,   !- @90.1-2019 Nonresidential CZ 0 Exterior Wall (Mass):Stucco-Density@ [kg/m3]
 840,   !- @90.1-2019 Nonresidential CZ 0 Exterior Wall (Mass):Stucco-SpecificHeat@ [J/kg-K]
 0.9,   !- @90.1-2019 Nonresidential CZ 0 Exterior Wall (Mass):Stucco-ThermalEmittance@
 0.7,   !- @90.1-2019 Nonresidential CZ 0 Exterior Wall (Mass):Stucco-SolarAbsorptance@
 0.7;   !- @90.1-2019 Nonresidential CZ 0 Exterior Wall (Mass):Stucco-VisibleAbsorptance@

!- Material: Concrete Type: Concrete
Material, Concrete_0.203_90.1-2019 Nonresidential CZ 0 Exterior Wall (Mass) ,                !- Material name 
 Rough,                                         !- Roughness
 0.203,   !- @90.1-2019 Nonresidential CZ 0 Exterior Wall (Mass):Concrete-Thickness@ [m]
 2,   !- @90.1-2019 Nonresidential CZ 0 Exterior Wall (Mass):Concrete-Conductivity@ [W/m-K]
 2400,   !- @90.1-2019 Nonresidential CZ 0 Exterior Wall (Mass):Concrete-Density@ [kg/m3]
 950,   !- @90.1-2019 Nonresidential CZ 0 Exterior Wall (Mass):Concrete-SpecificHeat@ [J/kg-K]
 0.9,   !- @90.1-2019 Nonresidential CZ 0 Exterior Wall (Mass):Concrete-ThermalEmittance@
 0.7,   !- @90.1-2019 Nonresidential CZ 0 Exterior Wall (Mass):Concrete-SolarAbsorptance@
 0.7;   !- @90.1-2019 Nonresidential CZ 0 Exterior Wall (Mass):Concrete-VisibleAbsorptance@

!- Material: Mineral Wool Type: Insulation
Material, Mineral Wool_0.006340168156952033_90.1-2019 Nonresidential CZ 0 Exterior Wall (Mass) ,                !- Material name 
 Rough,                                         !- Roughness
 0.006340168156952033,   !- @90.1-2019 Nonresidential CZ 0 Exterior Wall (Mass):Mineral Wool-Thickness@ [m]
 0.041,   !- @90.1-2019 Nonresidential CZ 0 Exterior Wall (Mass):Mineral Wool-Conductivity@ [W/m-K]
 155,   !- @90.1-2019 Nonresidential CZ 0 Exterior Wall (Mass):Mineral Wool-Density@ [kg/m3]
 1130,   !- @90.1-2019 Nonresidential CZ 0 Exterior Wall (Mass):Mineral Wool-SpecificHeat@ [J/kg-K]
 0.9,   !- @90.1-2019 Nonresidential CZ 0 Exterior Wall (Mass):Mineral Wool-ThermalEmittance@
 0.7,   !- @90.1-2019 Nonresidential CZ 0 Exterior Wall (Mass):Mineral Wool-SolarAbsorptance@
 0.7;   !- @90.1-2019 Nonresidential CZ 0 Exterior Wall (Mass):Mineral Wool-VisibleAbsorptance@

!- Material: Plaster Type: Screed
Material, Plaster_0.013_90.1-2019 Nonresidential CZ 0 Exterior Wall (Mass) ,                !- Material name 
 Rough,                                         !- Roughness
 0.013,   !- @90.1-2019 Nonresidential CZ 0 Exterior Wall (Mass):Plaster-Thickness@ [m]
 1,   !- @90.1-2019 Nonresidential CZ 0 Exterior Wall (Mass):Plaster-Conductivity@ [W/m-K]
 2000,   !- @90.1-2019 Nonresidential CZ 0 Exterior Wall (Mass):Plaster-Density@ [kg/m3]
 1130,   !- @90.1-2019 Nonresidential CZ 0 Exterior Wall (Mass):Plaster-SpecificHeat@ [J/kg-K]
 0.9,   !- @90.1-2019 Nonresidential CZ 0 Exterior Wall (Mass):Plaster-ThermalEmittance@
 0.7,   !- @90.1-2019 Nonresidential CZ 0 Exterior Wall (Mass):Plaster-SolarAbsorptance@
 0.7;   !- @90.1-2019 Nonresidential CZ 0 Exterior Wall (Mass):Plaster-VisibleAbsorptance@



! UVal_0.2_Light Type: Facade
Construction, UVal_0.2_Light,
Mineral Wool_0.195_UVal_0.2_Light,
Gypsum Board_0.02_UVal_0.2_Light;

Construction, UVal_0.2_Light_FLIPPED,
Gypsum Board_0.02_UVal_0.2_Light,
Mineral Wool_0.195_UVal_0.2_Light;



! Materials
!- Material: Mineral Wool Type: Insulation
Material, Mineral Wool_0.195_UVal_0.2_Light ,                !- Material name 
 Rough,                                         !- Roughness
 0.195,   !- @UVal_0.2_Light:Mineral Wool-Thickness@ [m]
 0.041,   !- @UVal_0.2_Light:Mineral Wool-Conductivity@ [W/m-K]
 155,   !- @UVal_0.2_Light:Mineral Wool-Density@ [kg/m3]
 1130,   !- @UVal_0.2_Light:Mineral Wool-SpecificHeat@ [J/kg-K]
 0.9,   !- @UVal_0.2_Light:Mineral Wool-ThermalEmittance@
 0.7,   !- @UVal_0.2_Light:Mineral Wool-SolarAbsorptance@
 0.7;   !- @UVal_0.2_Light:Mineral Wool-VisibleAbsorptance@

!- Material: Gypsum Board Type: Boards
Material, Gypsum Board_0.02_UVal_0.2_Light ,                !- Material name 
 MediumSmooth,                                         !- Roughness
 0.02,   !- @UVal_0.2_Light:Gypsum Board-Thickness@ [m]
 0.16,   !- @UVal_0.2_Light:Gypsum Board-Conductivity@ [W/m-K]
 800,   !- @UVal_0.2_Light:Gypsum Board-Density@ [kg/m3]
 1090,   !- @UVal_0.2_Light:Gypsum Board-SpecificHeat@ [J/kg-K]
 0.9,   !- @UVal_0.2_Light:Gypsum Board-ThermalEmittance@
 0.7,   !- @UVal_0.2_Light:Gypsum Board-SolarAbsorptance@
 0.7;   !- @UVal_0.2_Light:Gypsum Board-VisibleAbsorptance@



! Interior Slab (Mass) Type: Facade
Construction, Interior Slab (Mass),
Acoustic Tile_0.005_Interior Slab (Mass),
Concrete_0.102_Interior Slab (Mass),
Carpet_0.02_Interior Slab (Mass);

Construction, Interior Slab (Mass)_FLIPPED,
Carpet_0.02_Interior Slab (Mass),
Concrete_0.102_Interior Slab (Mass),
Acoustic Tile_0.005_Interior Slab (Mass);



! Materials
!- Material: Acoustic Tile Type: Finishes
Material, Acoustic Tile_0.005_Interior Slab (Mass) ,                !- Material name 
 MediumSmooth,                                         !- Roughness
 0.005,   !- @Interior Slab (Mass):Acoustic Tile-Thickness@ [m]
 0.06,   !- @Interior Slab (Mass):Acoustic Tile-Conductivity@ [W/m-K]
 368,   !- @Interior Slab (Mass):Acoustic Tile-Density@ [kg/m3]
 590,   !- @Interior Slab (Mass):Acoustic Tile-SpecificHeat@ [J/kg-K]
 0.9,   !- @Interior Slab (Mass):Acoustic Tile-ThermalEmittance@
 0.7,   !- @Interior Slab (Mass):Acoustic Tile-SolarAbsorptance@
 0.7;   !- @Interior Slab (Mass):Acoustic Tile-VisibleAbsorptance@

!- Material: Concrete Type: Concrete
Material, Concrete_0.102_Interior Slab (Mass) ,                !- Material name 
 Rough,                                         !- Roughness
 0.102,   !- @Interior Slab (Mass):Concrete-Thickness@ [m]
 2,   !- @Interior Slab (Mass):Concrete-Conductivity@ [W/m-K]
 2400,   !- @Interior Slab (Mass):Concrete-Density@ [kg/m3]
 950,   !- @Interior Slab (Mass):Concrete-SpecificHeat@ [J/kg-K]
 0.9,   !- @Interior Slab (Mass):Concrete-ThermalEmittance@
 0.7,   !- @Interior Slab (Mass):Concrete-SolarAbsorptance@
 0.7;   !- @Interior Slab (Mass):Concrete-VisibleAbsorptance@

!- Material: Carpet Type: Finishes
Material, Carpet_0.02_Interior Slab (Mass) ,                !- Material name 
 MediumRough,                                         !- Roughness
 0.02,   !- @Interior Slab (Mass):Carpet-Thickness@ [m]
 0.06,   !- @Interior Slab (Mass):Carpet-Conductivity@ [W/m-K]
 288,   !- @Interior Slab (Mass):Carpet-Density@ [kg/m3]
 1380,   !- @Interior Slab (Mass):Carpet-SpecificHeat@ [J/kg-K]
 0.9,   !- @Interior Slab (Mass):Carpet-ThermalEmittance@
 0.7,   !- @Interior Slab (Mass):Carpet-SolarAbsorptance@
 0.7;   !- @Interior Slab (Mass):Carpet-VisibleAbsorptance@



! 90.1-2019 Nonresidential CZ 8 Exterior Floor (Mass) Type: ExteriorFloor
Construction, 90.1-2019 Nonresidential CZ 8 Exterior Floor (Mass),
Stucco_0.025_90.1-2019 Nonresidential CZ 8 Exterior Floor (Mass),
Mineral Wool_0.17283461923768895_90.1-2019 Nonresidential CZ 8 Exterior Floor (Mass),
Concrete_0.102_90.1-2019 Nonresidential CZ 8 Exterior Floor (Mass),
Carpet_0.02_90.1-2019 Nonresidential CZ 8 Exterior Floor (Mass);

Construction, 90.1-2019 Nonresidential CZ 8 Exterior Floor (Mass)_FLIPPED,
Carpet_0.02_90.1-2019 Nonresidential CZ 8 Exterior Floor (Mass),
Concrete_0.102_90.1-2019 Nonresidential CZ 8 Exterior Floor (Mass),
Mineral Wool_0.17283461923768895_90.1-2019 Nonresidential CZ 8 Exterior Floor (Mass),
Stucco_0.025_90.1-2019 Nonresidential CZ 8 Exterior Floor (Mass);



! Materials
!- Material: Stucco Type: Plaster
Material, Stucco_0.025_90.1-2019 Nonresidential CZ 8 Exterior Floor (Mass) ,                !- Material name 
 Smooth,                                         !- Roughness
 0.025,   !- @90.1-2019 Nonresidential CZ 8 Exterior Floor (Mass):Stucco-Thickness@ [m]
 0.72,   !- @90.1-2019 Nonresidential CZ 8 Exterior Floor (Mass):Stucco-Conductivity@ [W/m-K]
 1856,   !- @90.1-2019 Nonresidential CZ 8 Exterior Floor (Mass):Stucco-Density@ [kg/m3]
 840,   !- @90.1-2019 Nonresidential CZ 8 Exterior Floor (Mass):Stucco-SpecificHeat@ [J/kg-K]
 0.9,   !- @90.1-2019 Nonresidential CZ 8 Exterior Floor (Mass):Stucco-ThermalEmittance@
 0.7,   !- @90.1-2019 Nonresidential CZ 8 Exterior Floor (Mass):Stucco-SolarAbsorptance@
 0.7;   !- @90.1-2019 Nonresidential CZ 8 Exterior Floor (Mass):Stucco-VisibleAbsorptance@

!- Material: Mineral Wool Type: Insulation
Material, Mineral Wool_0.17283461923768895_90.1-2019 Nonresidential CZ 8 Exterior Floor (Mass) ,                !- Material name 
 Rough,                                         !- Roughness
 0.17283461923768895,   !- @90.1-2019 Nonresidential CZ 8 Exterior Floor (Mass):Mineral Wool-Thickness@ [m]
 0.041,   !- @90.1-2019 Nonresidential CZ 8 Exterior Floor (Mass):Mineral Wool-Conductivity@ [W/m-K]
 155,   !- @90.1-2019 Nonresidential CZ 8 Exterior Floor (Mass):Mineral Wool-Density@ [kg/m3]
 1130,   !- @90.1-2019 Nonresidential CZ 8 Exterior Floor (Mass):Mineral Wool-SpecificHeat@ [J/kg-K]
 0.9,   !- @90.1-2019 Nonresidential CZ 8 Exterior Floor (Mass):Mineral Wool-ThermalEmittance@
 0.7,   !- @90.1-2019 Nonresidential CZ 8 Exterior Floor (Mass):Mineral Wool-SolarAbsorptance@
 0.7;   !- @90.1-2019 Nonresidential CZ 8 Exterior Floor (Mass):Mineral Wool-VisibleAbsorptance@

!- Material: Concrete Type: Concrete
Material, Concrete_0.102_90.1-2019 Nonresidential CZ 8 Exterior Floor (Mass) ,                !- Material name 
 Rough,                                         !- Roughness
 0.102,   !- @90.1-2019 Nonresidential CZ 8 Exterior Floor (Mass):Concrete-Thickness@ [m]
 2,   !- @90.1-2019 Nonresidential CZ 8 Exterior Floor (Mass):Concrete-Conductivity@ [W/m-K]
 2400,   !- @90.1-2019 Nonresidential CZ 8 Exterior Floor (Mass):Concrete-Density@ [kg/m3]
 950,   !- @90.1-2019 Nonresidential CZ 8 Exterior Floor (Mass):Concrete-SpecificHeat@ [J/kg-K]
 0.9,   !- @90.1-2019 Nonresidential CZ 8 Exterior Floor (Mass):Concrete-ThermalEmittance@
 0.7,   !- @90.1-2019 Nonresidential CZ 8 Exterior Floor (Mass):Concrete-SolarAbsorptance@
 0.7;   !- @90.1-2019 Nonresidential CZ 8 Exterior Floor (Mass):Concrete-VisibleAbsorptance@

!- Material: Carpet Type: Finishes
Material, Carpet_0.02_90.1-2019 Nonresidential CZ 8 Exterior Floor (Mass) ,                !- Material name 
 MediumRough,                                         !- Roughness
 0.02,   !- @90.1-2019 Nonresidential CZ 8 Exterior Floor (Mass):Carpet-Thickness@ [m]
 0.06,   !- @90.1-2019 Nonresidential CZ 8 Exterior Floor (Mass):Carpet-Conductivity@ [W/m-K]
 288,   !- @90.1-2019 Nonresidential CZ 8 Exterior Floor (Mass):Carpet-Density@ [kg/m3]
 1380,   !- @90.1-2019 Nonresidential CZ 8 Exterior Floor (Mass):Carpet-SpecificHeat@ [J/kg-K]
 0.9,   !- @90.1-2019 Nonresidential CZ 8 Exterior Floor (Mass):Carpet-ThermalEmittance@
 0.7,   !- @90.1-2019 Nonresidential CZ 8 Exterior Floor (Mass):Carpet-SolarAbsorptance@
 0.7;   !- @90.1-2019 Nonresidential CZ 8 Exterior Floor (Mass):Carpet-VisibleAbsorptance@



! Interior Partition (Mass) Type: Partition
Construction, Interior Partition (Mass),
Plaster_0.013_Interior Partition (Mass),
Plaster_0.013_Interior Partition (Mass);

Construction, Interior Partition (Mass)_FLIPPED,
Plaster_0.013_Interior Partition (Mass),
Plaster_0.013_Interior Partition (Mass);



! Materials
!- Material: Plaster Type: Screed
Material, Plaster_0.013_Interior Partition (Mass) ,                !- Material name 
 Rough,                                         !- Roughness
 0.013,   !- @Interior Partition (Mass):Plaster-Thickness@ [m]
 1,   !- @Interior Partition (Mass):Plaster-Conductivity@ [W/m-K]
 2000,   !- @Interior Partition (Mass):Plaster-Density@ [kg/m3]
 1130,   !- @Interior Partition (Mass):Plaster-SpecificHeat@ [J/kg-K]
 0.9,   !- @Interior Partition (Mass):Plaster-ThermalEmittance@
 0.7,   !- @Interior Partition (Mass):Plaster-SolarAbsorptance@
 0.7;   !- @Interior Partition (Mass):Plaster-VisibleAbsorptance@



! 300mmInsulation 200mmConcrete Type: Facade
Construction, 300mmInsulation 200mmConcrete,
XPS Board_0.3_300mmInsulation 200mmConcrete,
General Concrete_0.2_300mmInsulation 200mmConcrete;

Construction, 300mmInsulation 200mmConcrete_FLIPPED,
General Concrete_0.2_300mmInsulation 200mmConcrete,
XPS Board_0.3_300mmInsulation 200mmConcrete;



! Materials
!- Material: XPS Board Type: Insulation
Material, XPS Board_0.3_300mmInsulation 200mmConcrete ,                !- Material name 
 Rough,                                         !- Roughness
 0.3,   !- @300mmInsulation 200mmConcrete:XPS Board-Thickness@ [m]
 0.034,   !- @300mmInsulation 200mmConcrete:XPS Board-Conductivity@ [W/m-K]
 35,   !- @300mmInsulation 200mmConcrete:XPS Board-Density@ [kg/m3]
 1400,   !- @300mmInsulation 200mmConcrete:XPS Board-SpecificHeat@ [J/kg-K]
 0.9,   !- @300mmInsulation 200mmConcrete:XPS Board-ThermalEmittance@
 0.7,   !- @300mmInsulation 200mmConcrete:XPS Board-SolarAbsorptance@
 0.7;   !- @300mmInsulation 200mmConcrete:XPS Board-VisibleAbsorptance@

!- Material: General Concrete Type: Concrete
Material, General Concrete_0.2_300mmInsulation 200mmConcrete ,                !- Material name 
 Rough,                                         !- Roughness
 0.2,   !- @300mmInsulation 200mmConcrete:General Concrete-Thickness@ [m]
 2,   !- @300mmInsulation 200mmConcrete:General Concrete-Conductivity@ [W/m-K]
 2400,   !- @300mmInsulation 200mmConcrete:General Concrete-Density@ [kg/m3]
 950,   !- @300mmInsulation 200mmConcrete:General Concrete-SpecificHeat@ [J/kg-K]
 0.9,   !- @300mmInsulation 200mmConcrete:General Concrete-ThermalEmittance@
 0.7,   !- @300mmInsulation 200mmConcrete:General Concrete-SolarAbsorptance@
 0.7;   !- @300mmInsulation 200mmConcrete:General Concrete-VisibleAbsorptance@



! UVal_0.3_Light Type: Facade
Construction, UVal_0.3_Light,
Mineral Wool_0.127_UVal_0.3_Light,
Gypsum Board_0.02_UVal_0.3_Light;

Construction, UVal_0.3_Light_FLIPPED,
Gypsum Board_0.02_UVal_0.3_Light,
Mineral Wool_0.127_UVal_0.3_Light;



! Materials
!- Material: Mineral Wool Type: Insulation
Material, Mineral Wool_0.127_UVal_0.3_Light ,                !- Material name 
 Rough,                                         !- Roughness
 0.127,   !- @UVal_0.3_Light:Mineral Wool-Thickness@ [m]
 0.041,   !- @UVal_0.3_Light:Mineral Wool-Conductivity@ [W/m-K]
 155,   !- @UVal_0.3_Light:Mineral Wool-Density@ [kg/m3]
 1130,   !- @UVal_0.3_Light:Mineral Wool-SpecificHeat@ [J/kg-K]
 0.9,   !- @UVal_0.3_Light:Mineral Wool-ThermalEmittance@
 0.7,   !- @UVal_0.3_Light:Mineral Wool-SolarAbsorptance@
 0.7;   !- @UVal_0.3_Light:Mineral Wool-VisibleAbsorptance@

!- Material: Gypsum Board Type: Boards
Material, Gypsum Board_0.02_UVal_0.3_Light ,                !- Material name 
 MediumSmooth,                                         !- Roughness
 0.02,   !- @UVal_0.3_Light:Gypsum Board-Thickness@ [m]
 0.16,   !- @UVal_0.3_Light:Gypsum Board-Conductivity@ [W/m-K]
 800,   !- @UVal_0.3_Light:Gypsum Board-Density@ [kg/m3]
 1090,   !- @UVal_0.3_Light:Gypsum Board-SpecificHeat@ [J/kg-K]
 0.9,   !- @UVal_0.3_Light:Gypsum Board-ThermalEmittance@
 0.7,   !- @UVal_0.3_Light:Gypsum Board-SolarAbsorptance@
 0.7;   !- @UVal_0.3_Light:Gypsum Board-VisibleAbsorptance@



! 90.1-2019 Nonresidential CZ 0 Exterior Floor (Mass) Type: ExteriorFloor
Construction, 90.1-2019 Nonresidential CZ 0 Exterior Floor (Mass),
Stucco_0.025_90.1-2019 Nonresidential CZ 0 Exterior Floor (Mass),
Mineral Wool_0.005244967487677573_90.1-2019 Nonresidential CZ 0 Exterior Floor (Mass),
Concrete_0.102_90.1-2019 Nonresidential CZ 0 Exterior Floor (Mass),
Carpet_0.02_90.1-2019 Nonresidential CZ 0 Exterior Floor (Mass);

Construction, 90.1-2019 Nonresidential CZ 0 Exterior Floor (Mass)_FLIPPED,
Carpet_0.02_90.1-2019 Nonresidential CZ 0 Exterior Floor (Mass),
Concrete_0.102_90.1-2019 Nonresidential CZ 0 Exterior Floor (Mass),
Mineral Wool_0.005244967487677573_90.1-2019 Nonresidential CZ 0 Exterior Floor (Mass),
Stucco_0.025_90.1-2019 Nonresidential CZ 0 Exterior Floor (Mass);



! Materials
!- Material: Stucco Type: Plaster
Material, Stucco_0.025_90.1-2019 Nonresidential CZ 0 Exterior Floor (Mass) ,                !- Material name 
 Smooth,                                         !- Roughness
 0.025,   !- @90.1-2019 Nonresidential CZ 0 Exterior Floor (Mass):Stucco-Thickness@ [m]
 0.72,   !- @90.1-2019 Nonresidential CZ 0 Exterior Floor (Mass):Stucco-Conductivity@ [W/m-K]
 1856,   !- @90.1-2019 Nonresidential CZ 0 Exterior Floor (Mass):Stucco-Density@ [kg/m3]
 840,   !- @90.1-2019 Nonresidential CZ 0 Exterior Floor (Mass):Stucco-SpecificHeat@ [J/kg-K]
 0.9,   !- @90.1-2019 Nonresidential CZ 0 Exterior Floor (Mass):Stucco-ThermalEmittance@
 0.7,   !- @90.1-2019 Nonresidential CZ 0 Exterior Floor (Mass):Stucco-SolarAbsorptance@
 0.7;   !- @90.1-2019 Nonresidential CZ 0 Exterior Floor (Mass):Stucco-VisibleAbsorptance@

!- Material: Mineral Wool Type: Insulation
Material, Mineral Wool_0.005244967487677573_90.1-2019 Nonresidential CZ 0 Exterior Floor (Mass) ,                !- Material name 
 Rough,                                         !- Roughness
 0.005244967487677573,   !- @90.1-2019 Nonresidential CZ 0 Exterior Floor (Mass):Mineral Wool-Thickness@ [m]
 0.041,   !- @90.1-2019 Nonresidential CZ 0 Exterior Floor (Mass):Mineral Wool-Conductivity@ [W/m-K]
 155,   !- @90.1-2019 Nonresidential CZ 0 Exterior Floor (Mass):Mineral Wool-Density@ [kg/m3]
 1130,   !- @90.1-2019 Nonresidential CZ 0 Exterior Floor (Mass):Mineral Wool-SpecificHeat@ [J/kg-K]
 0.9,   !- @90.1-2019 Nonresidential CZ 0 Exterior Floor (Mass):Mineral Wool-ThermalEmittance@
 0.7,   !- @90.1-2019 Nonresidential CZ 0 Exterior Floor (Mass):Mineral Wool-SolarAbsorptance@
 0.7;   !- @90.1-2019 Nonresidential CZ 0 Exterior Floor (Mass):Mineral Wool-VisibleAbsorptance@

!- Material: Concrete Type: Concrete
Material, Concrete_0.102_90.1-2019 Nonresidential CZ 0 Exterior Floor (Mass) ,                !- Material name 
 Rough,                                         !- Roughness
 0.102,   !- @90.1-2019 Nonresidential CZ 0 Exterior Floor (Mass):Concrete-Thickness@ [m]
 2,   !- @90.1-2019 Nonresidential CZ 0 Exterior Floor (Mass):Concrete-Conductivity@ [W/m-K]
 2400,   !- @90.1-2019 Nonresidential CZ 0 Exterior Floor (Mass):Concrete-Density@ [kg/m3]
 950,   !- @90.1-2019 Nonresidential CZ 0 Exterior Floor (Mass):Concrete-SpecificHeat@ [J/kg-K]
 0.9,   !- @90.1-2019 Nonresidential CZ 0 Exterior Floor (Mass):Concrete-ThermalEmittance@
 0.7,   !- @90.1-2019 Nonresidential CZ 0 Exterior Floor (Mass):Concrete-SolarAbsorptance@
 0.7;   !- @90.1-2019 Nonresidential CZ 0 Exterior Floor (Mass):Concrete-VisibleAbsorptance@

!- Material: Carpet Type: Finishes
Material, Carpet_0.02_90.1-2019 Nonresidential CZ 0 Exterior Floor (Mass) ,                !- Material name 
 MediumRough,                                         !- Roughness
 0.02,   !- @90.1-2019 Nonresidential CZ 0 Exterior Floor (Mass):Carpet-Thickness@ [m]
 0.06,   !- @90.1-2019 Nonresidential CZ 0 Exterior Floor (Mass):Carpet-Conductivity@ [W/m-K]
 288,   !- @90.1-2019 Nonresidential CZ 0 Exterior Floor (Mass):Carpet-Density@ [kg/m3]
 1380,   !- @90.1-2019 Nonresidential CZ 0 Exterior Floor (Mass):Carpet-SpecificHeat@ [J/kg-K]
 0.9,   !- @90.1-2019 Nonresidential CZ 0 Exterior Floor (Mass):Carpet-ThermalEmittance@
 0.7,   !- @90.1-2019 Nonresidential CZ 0 Exterior Floor (Mass):Carpet-SolarAbsorptance@
 0.7;   !- @90.1-2019 Nonresidential CZ 0 Exterior Floor (Mass):Carpet-VisibleAbsorptance@




! ------------ GLAZING  


Construction,
    90.1-2019 Nonresidential CZ 0 Glazing (Operable),              !- Name
    90.1-2019 Nonresidential CZ 0 Glazing (Operable)Window;

WindowMaterial:SimpleGlazingSystem,
90.1-2019 Nonresidential CZ 0 Glazing (Operable)Window , !-Name
3.520523271462259 ,    !- @90.1-2019 Nonresidential CZ 0 Glazing (Operable)-UValue@
0.2 ,    !- @90.1-2019 Nonresidential CZ 0 Glazing (Operable)-SolarHeatGainCoefficient@
0.22000000000000003;    !- @90.1-2019 Nonresidential CZ 0 Glazing (Operable)-VisibleTransmittance@


! ------------ SCHEDULES ------------



Schedule:Constant,
  AllOn,                     !- Name
  Fraction,                  !- Schedule Type Limits Name
  1;                       !- Value




Schedule:Constant,
  AirSpeed 0,                     !- Name
  AnyNumber,                  !- Schedule Type Limits Name
  0;                       !- Value


