! ----  This file was generated with Climate Studio 2.3.9455.24557

Version,23.1;

Site:GroundTemperature:BuildingSurface,18,18,18,18,18,18,18,18,18,18,18,18;

Site:GroundReflectance,0.2,0.2,0.2,0.2,0.2,0.2,0.2,0.2,0.2,0.2,0.2,0.2;

Site:GroundReflectance:SnowModifier,
  1.0,                     !- Ground Reflected Solar Modifier
  1.0;                     !- Daylighting Ground Reflected Solar Modifier


Site:WeatherStation, 
10, !- Wind Sensor Height Above Ground {m} 
0.22, !- Wind Speed Profile Exponent {} 
370, !- Wind Speed Profile Boundary Layer Thickness {m} 
1.5; !- Air Temperature Sensor Height Above Ground {m}


ZoneAirContaminantBalance,
  Yes,                       !- Carbon Dioxide Concentration
  GlobalCO2,      !- Outdoor Carbon Dioxide Schedule Name
  No,                       !- Generic Contaminant Concentration
  Off; !- Outdoor Generic Contaminant Schedule Name


!-   ===========  ALL OBJECTS IN CLASS: RUNPERIOD ===========

RunPeriod,
  Climate Studio,                 !- Name
  1,                       !- Begin Month
  1,                       !- Begin Day of Month
  , !- Begin Year
  12,                      !- End Month
  31,                      !- End Day of Month
  , !- End Year
  Sunday,          !- Day of Week for Start Day
  No,                     !- Use Weather File Holidays and Special Days
  No,                     !- Use Weather File Daylight Saving Period
  No,                      !- Apply Weekend Holiday Rule
  Yes,                     !- Use Weather File Rain Indicators
  Yes,                     !- Use Weather File Snow Indicators
  No;                      !- Treat Weather as Actual

RunPeriodControl:DaylightSavingTime,2nd Sunday in March, 1st Sunday in November; !2007


!-   ===========  ALL OBJECTS IN CLASS: SIMULATIONCONTROL ===========

SimulationControl,
Yes, !- Do Zone Sizing Calculation
Yes, !- Do System Sizing Calculation
Yes, !- Do Plant Sizing Calculation
No, !- Run Simulation for Sizing Periods
Yes, !- Run Simulation for Weather File Run Periods
No, !- Do HVAC Sizing Simulation for Sizing Periods
2; !- Maximum Number of HVAC Sizing Simulation Passes


!-   ===========  ALL OBJECTS IN CLASS: CONVERGENCELIMITS ===========

ConvergenceLimits,
0, !- Minimum System Timestep (0 = same as zone timestep)
100, !- Maximum HVAC Iterations
3, !- Minimum Plant Iterations
10; !- Maximum Plant Iterations


!-   ===========  ALL OBJECTS IN CLASS: SCHEDULETYPELIMITS ===========

ScheduleTypeLimits,
  Any Number;              !- Name

ScheduleTypeLimits,
  Fraction,                !- Name
  0.0,                     !- Lower Limit Value {A3}
  1.0,                     !- Upper Limit Value {A3}
  CONTINUOUS;              !- Numeric Type

ScheduleTypeLimits,
  Temperature,             !- Name
  -60,                     !- Lower Limit Value
  200,                     !- Upper Limit Value
  CONTINUOUS;              !- Numeric Type

ScheduleTypeLimits,
  AnyNumber,               !- Name
  -1E11,                   !- Lower Limit Value
  1E11,                    !- Upper Limit Value
  CONTINUOUS;              !- Numeric Type

ScheduleTypeLimits,
  Control Type,            !- Name
  0,                       !- Lower Limit Value
  4,                       !- Upper Limit Value
  DISCRETE;                !- Numeric Type

ScheduleTypeLimits,
  On/Off,                  !- Name
  0,                       !- Lower Limit Value
  1,                       !- Upper Limit Value
  DISCRETE;                !- Numeric Type

Schedule:Constant,
  On,                      !- Name
  On/Off,                  !- Schedule Type Limits Name
  1;                       !- Value

Schedule:Constant,
  Off,                     !- Name
  On/Off,                  !- Schedule Type Limits Name
  0;                       !- Value


! -------------------------ERL SENSORS--------------------------

EnergyManagementSystem:Sensor,                                             
  OutdoorTemp, !- Name                                         
  Environment, !- Output:Variable Index Key Name               
  Site Outdoor Air Drybulb Temperature; !- Output:Variable Name

EnergyManagementSystem:Sensor,                                             
  OutdoorRelHumid, !- Name                                         
  Environment, !- Output:Variable Index Key Name               
  Site Outdoor Air Relative Humidity; !- Output:Variable Name

Output:EnergyManagementSystem,
  Verbose,                 !- Actuator Availability Dictionary Reporting
  Verbose,                 !- Internal Variable Availability Dictionary Reporting
  Verbose;                 !- EMS Runtime Language Debug Output Level

! Output:SQLite, Simple;



SizingPeriod:WeatherFileConditionType ,
    Extreme Summer Weather Period for Design, !- Name
    SummerExtreme , !- Period Selection
    SummerDesignDay , !- Day Type
    No, !- Use Weather File Daylight Saving Period
    No; !- Use Weather File Rain and Snow Indicators

SizingPeriod:WeatherFileConditionType ,
    Extreme Winter Weather Period for Design, !- Name
    WinterExtreme , !- Period Selection
    WinterDesignDay , !- Day Type
    No, !- Use Weather File Daylight Saving Period
    No; !- Use Weather File Rain and Snow Indicators

Sizing:Parameters,
    1.5,                     !- Heating Sizing Factor
    1.5;                     !- Cooling Sizing Factor




GlobalGeometryRules,
  LowerLeftCorner,         !- Starting Vertex Position
  CounterClockWise,        !- Vertex Entry Direction
  Relative;                !- Coordinate System

ShadowCalculation,
    PixelCounting,           !- Shading Calculation Method
    Periodic,                !- Shading Calculation Update Frequency Method
    20,                      !- Shading Calculation Update Frequency
    15000,                   !- Maximum Figures in Shadow Overlap Calculations
    ,                        !- Polygon Clipping Algorithm
    512,                     !- Pixel Counting Resolution
    SimpleSkyDiffuseModeling,  !- Sky Diffuse Modeling Algorithm
    Yes,                     !- Output External Shading Calculation Results
    No,                      !- Disable Self-Shading Within Shading Zone Groups
    No;                      !- Disable Self-Shading From Shading Zone Groups to Other Zones

Building,
    Building,                !- Name
    0,        !- North Axis {deg}
    Suburbs,       !- Terrain
    0.04,                    !- Loads Convergence Tolerance Value
    0.25,                     !- Temperature Convergence Tolerance Value {deltaC}
    FullExterior,            !- Solar Distribution
    30,                      !- Maximum Number of Warmup Days
    7;                       !- Minimum Number of Warmup Days



!-   ===========  ALL OBJECTS IN CLASS: HEATBALANCEALGORITHM ===========

HeatBalanceAlgorithm,
    ConductionTransferFunction,  !- Algorithm
    200,                     !- Surface Temperature Upper Limit {C}
    0.1,                     !- Minimum Surface Convection Heat Transfer Coefficient Value {W/m2-K}
    1000;                    !- Maximum Surface Convection Heat Transfer Coefficient Value {W/m2-K}

Timestep,6;

SurfaceConvectionAlgorithm:Inside,TARP;

SurfaceConvectionAlgorithm:Outside,DOE-2;

! ------------ CONSTRUCTIONS 

! defaultConstruction Type: Facade
Construction, defaultConstruction,
defaultMat_0.25_defaultConstruction;

Construction, defaultConstruction_FLIPPED,
defaultMat_0.25_defaultConstruction;



! Materials
!- Material: defaultMat Type: Concrete
Material, defaultMat_0.25_defaultConstruction ,                !- Material name 
 Rough,                                         !- Roughness
 0.25,   !- @defaultConstruction:defaultMat-Thickness@ [m]
 2.3,   !- @defaultConstruction:defaultMat-Conductivity@ [W/m-K]
 2400,   !- @defaultConstruction:defaultMat-Density@ [kg/m3]
 840,   !- @defaultConstruction:defaultMat-SpecificHeat@ [J/kg-K]
 0.9,   !- @defaultConstruction:defaultMat-ThermalEmittance@
 0.7,   !- @defaultConstruction:defaultMat-SolarAbsorptance@
 0.7;   !- @defaultConstruction:defaultMat-VisibleAbsorptance@



! 90.1-2019 Nonresidential CZ 0 Ground Wall (Mass) Type: Facade
Construction, 90.1-2019 Nonresidential CZ 0 Ground Wall (Mass),
XPS Board_0.026356561403508776_90.1-2019 Nonresidential CZ 0 Ground Wall (Mass),
Concrete_0.203_90.1-2019 Nonresidential CZ 0 Ground Wall (Mass);

Construction, 90.1-2019 Nonresidential CZ 0 Ground Wall (Mass)_FLIPPED,
Concrete_0.203_90.1-2019 Nonresidential CZ 0 Ground Wall (Mass),
XPS Board_0.026356561403508776_90.1-2019 Nonresidential CZ 0 Ground Wall (Mass);



! Materials
!- Material: XPS Board Type: Insulation
Material, XPS Board_0.026356561403508776_90.1-2019 Nonresidential CZ 0 Ground Wall (Mass) ,                !- Material name 
 Rough,                                         !- Roughness
 0.026356561403508776,   !- @90.1-2019 Nonresidential CZ 0 Ground Wall (Mass):XPS Board-Thickness@ [m]
 0.034,   !- @90.1-2019 Nonresidential CZ 0 Ground Wall (Mass):XPS Board-Conductivity@ [W/m-K]
 35,   !- @90.1-2019 Nonresidential CZ 0 Ground Wall (Mass):XPS Board-Density@ [kg/m3]
 1400,   !- @90.1-2019 Nonresidential CZ 0 Ground Wall (Mass):XPS Board-SpecificHeat@ [J/kg-K]
 0.9,   !- @90.1-2019 Nonresidential CZ 0 Ground Wall (Mass):XPS Board-ThermalEmittance@
 0.7,   !- @90.1-2019 Nonresidential CZ 0 Ground Wall (Mass):XPS Board-SolarAbsorptance@
 0.7;   !- @90.1-2019 Nonresidential CZ 0 Ground Wall (Mass):XPS Board-VisibleAbsorptance@

!- Material: Concrete Type: Concrete
Material, Concrete_0.203_90.1-2019 Nonresidential CZ 0 Ground Wall (Mass) ,                !- Material name 
 Rough,                                         !- Roughness
 0.203,   !- @90.1-2019 Nonresidential CZ 0 Ground Wall (Mass):Concrete-Thickness@ [m]
 2,   !- @90.1-2019 Nonresidential CZ 0 Ground Wall (Mass):Concrete-Conductivity@ [W/m-K]
 2400,   !- @90.1-2019 Nonresidential CZ 0 Ground Wall (Mass):Concrete-Density@ [kg/m3]
 950,   !- @90.1-2019 Nonresidential CZ 0 Ground Wall (Mass):Concrete-SpecificHeat@ [J/kg-K]
 0.9,   !- @90.1-2019 Nonresidential CZ 0 Ground Wall (Mass):Concrete-ThermalEmittance@
 0.7,   !- @90.1-2019 Nonresidential CZ 0 Ground Wall (Mass):Concrete-SolarAbsorptance@
 0.7;   !- @90.1-2019 Nonresidential CZ 0 Ground Wall (Mass):Concrete-VisibleAbsorptance@



! 90.1-2019 Nonresidential CZ 0 Ground Slab (Mass) Type: GroundFloor
Construction, 90.1-2019 Nonresidential CZ 0 Ground Slab (Mass),
XPS Board_0.018543333333333335_90.1-2019 Nonresidential CZ 0 Ground Slab (Mass),
Concrete_0.203_90.1-2019 Nonresidential CZ 0 Ground Slab (Mass),
Carpet_0.02_90.1-2019 Nonresidential CZ 0 Ground Slab (Mass);

Construction, 90.1-2019 Nonresidential CZ 0 Ground Slab (Mass)_FLIPPED,
Carpet_0.02_90.1-2019 Nonresidential CZ 0 Ground Slab (Mass),
Concrete_0.203_90.1-2019 Nonresidential CZ 0 Ground Slab (Mass),
XPS Board_0.018543333333333335_90.1-2019 Nonresidential CZ 0 Ground Slab (Mass);



! Materials
!- Material: XPS Board Type: Insulation
Material, XPS Board_0.018543333333333335_90.1-2019 Nonresidential CZ 0 Ground Slab (Mass) ,                !- Material name 
 Rough,                                         !- Roughness
 0.018543333333333335,   !- @90.1-2019 Nonresidential CZ 0 Ground Slab (Mass):XPS Board-Thickness@ [m]
 0.034,   !- @90.1-2019 Nonresidential CZ 0 Ground Slab (Mass):XPS Board-Conductivity@ [W/m-K]
 35,   !- @90.1-2019 Nonresidential CZ 0 Ground Slab (Mass):XPS Board-Density@ [kg/m3]
 1400,   !- @90.1-2019 Nonresidential CZ 0 Ground Slab (Mass):XPS Board-SpecificHeat@ [J/kg-K]
 0.9,   !- @90.1-2019 Nonresidential CZ 0 Ground Slab (Mass):XPS Board-ThermalEmittance@
 0.7,   !- @90.1-2019 Nonresidential CZ 0 Ground Slab (Mass):XPS Board-SolarAbsorptance@
 0.7;   !- @90.1-2019 Nonresidential CZ 0 Ground Slab (Mass):XPS Board-VisibleAbsorptance@

!- Material: Concrete Type: Concrete
Material, Concrete_0.203_90.1-2019 Nonresidential CZ 0 Ground Slab (Mass) ,                !- Material name 
 Rough,                                         !- Roughness
 0.203,   !- @90.1-2019 Nonresidential CZ 0 Ground Slab (Mass):Concrete-Thickness@ [m]
 2,   !- @90.1-2019 Nonresidential CZ 0 Ground Slab (Mass):Concrete-Conductivity@ [W/m-K]
 2400,   !- @90.1-2019 Nonresidential CZ 0 Ground Slab (Mass):Concrete-Density@ [kg/m3]
 950,   !- @90.1-2019 Nonresidential CZ 0 Ground Slab (Mass):Concrete-SpecificHeat@ [J/kg-K]
 0.9,   !- @90.1-2019 Nonresidential CZ 0 Ground Slab (Mass):Concrete-ThermalEmittance@
 0.7,   !- @90.1-2019 Nonresidential CZ 0 Ground Slab (Mass):Concrete-SolarAbsorptance@
 0.7;   !- @90.1-2019 Nonresidential CZ 0 Ground Slab (Mass):Concrete-VisibleAbsorptance@

!- Material: Carpet Type: Finishes
Material, Carpet_0.02_90.1-2019 Nonresidential CZ 0 Ground Slab (Mass) ,                !- Material name 
 MediumRough,                                         !- Roughness
 0.02,   !- @90.1-2019 Nonresidential CZ 0 Ground Slab (Mass):Carpet-Thickness@ [m]
 0.06,   !- @90.1-2019 Nonresidential CZ 0 Ground Slab (Mass):Carpet-Conductivity@ [W/m-K]
 288,   !- @90.1-2019 Nonresidential CZ 0 Ground Slab (Mass):Carpet-Density@ [kg/m3]
 1380,   !- @90.1-2019 Nonresidential CZ 0 Ground Slab (Mass):Carpet-SpecificHeat@ [J/kg-K]
 0.9,   !- @90.1-2019 Nonresidential CZ 0 Ground Slab (Mass):Carpet-ThermalEmittance@
 0.7,   !- @90.1-2019 Nonresidential CZ 0 Ground Slab (Mass):Carpet-SolarAbsorptance@
 0.7;   !- @90.1-2019 Nonresidential CZ 0 Ground Slab (Mass):Carpet-VisibleAbsorptance@




! ------------ GLAZING  



! ------------ SCHEDULES ------------



Schedule:Constant,
  AllOn,                     !- Name
  Fraction,                  !- Schedule Type Limits Name
  1;                       !- Value




Schedule:Constant,
  AirSpeed 0,                     !- Name
  AnyNumber,                  !- Schedule Type Limits Name
  0;                       !- Value



Schedule:Day:Hourly, fccb468a-d140-4c9d-bb15-9895d8e1612c, AnyNumber,412.77,412.77167,412.77333,412.775,412.77667,412.77833,412.78,412.78167,412.78333,412.785,412.78667,412.78833,412.79,412.79167,412.79333,412.795,412.79667,412.79833,412.8,412.80167,412.80333,412.805,412.80667,412.80833;

Schedule:Day:Hourly, a126b80a-8196-4059-96b1-17d0a5c2b24a, AnyNumber,412.81,412.81125,412.8125,412.81375,412.815,412.81625,412.8175,412.81875,412.82,412.82125,412.8225,412.82375,412.825,412.82625,412.8275,412.82875,412.83,412.83125,412.8325,412.83375,412.835,412.83625,412.8375,412.83875;

Schedule:Day:Hourly, 285f953c-f98a-4f92-b4fe-7f4b6c27dfa4, AnyNumber,412.84,412.84167,412.84333,412.845,412.84667,412.84833,412.85,412.85167,412.85333,412.855,412.85667,412.85833,412.86,412.86167,412.86333,412.865,412.86667,412.86833,412.87,412.87167,412.87333,412.875,412.87667,412.87833;

Schedule:Day:Hourly, d2c47b18-04f1-4c8e-92ae-fe84858fba37, AnyNumber,412.88,412.88125,412.8825,412.88375,412.885,412.88625,412.8875,412.88875,412.89,412.89125,412.8925,412.89375,412.895,412.89625,412.8975,412.89875,412.9,412.90125,412.9025,412.90375,412.905,412.90625,412.9075,412.90875;

Schedule:Day:Hourly, a45f87c3-1328-45fe-b134-ef26d54754e4, AnyNumber,412.91,412.91167,412.91333,412.915,412.91667,412.91833,412.92,412.92167,412.92333,412.925,412.92667,412.92833,412.93,412.93167,412.93333,412.935,412.93667,412.93833,412.94,412.94167,412.94333,412.945,412.94667,412.94833;

Schedule:Day:Hourly, f06a15ea-1849-4bf0-bb6d-4e044366b4e6, AnyNumber,412.95,412.95125,412.9525,412.95375,412.955,412.95625,412.9575,412.95875,412.96,412.96125,412.9625,412.96375,412.965,412.96625,412.9675,412.96875,412.97,412.97125,412.9725,412.97375,412.975,412.97625,412.9775,412.97875;

Schedule:Day:Hourly, f5e1d5af-6a02-4a37-a767-41c64316a437, AnyNumber,412.98,412.98125,412.9825,412.98375,412.985,412.98625,412.9875,412.98875,412.99,412.99125,412.9925,412.99375,412.995,412.99625,412.9975,412.99875,413,413.00125,413.0025,413.00375,413.005,413.00625,413.0075,413.00875;

Schedule:Day:Hourly, 8ae9891c-4fe7-4d96-85b6-6658ebcb86a6, AnyNumber,413.01,413.01125,413.0125,413.01375,413.015,413.01625,413.0175,413.01875,413.02,413.02125,413.0225,413.02375,413.025,413.02625,413.0275,413.02875,413.03,413.03125,413.0325,413.03375,413.035,413.03625,413.0375,413.03875;

Schedule:Day:Hourly, 90ab4a24-a297-47ca-b831-2bbe62678386, AnyNumber,413.04,413.04167,413.04333,413.045,413.04667,413.04833,413.05,413.05167,413.05333,413.055,413.05667,413.05833,413.06,413.06167,413.06333,413.065,413.06667,413.06833,413.07,413.07167,413.07333,413.075,413.07667,413.07833;

Schedule:Day:Hourly, ffe0cbfa-92ed-4b1a-bc91-a57a6b7341d2, AnyNumber,413.08,413.08125,413.0825,413.08375,413.085,413.08625,413.0875,413.08875,413.09,413.09125,413.0925,413.09375,413.095,413.09625,413.0975,413.09875,413.1,413.10125,413.1025,413.10375,413.105,413.10625,413.1075,413.10875;

Schedule:Day:Hourly, beb59390-71a4-493c-9c7d-4cbe79c1270f, AnyNumber,413.11,413.11125,413.1125,413.11375,413.115,413.11625,413.1175,413.11875,413.12,413.12125,413.1225,413.12375,413.125,413.12625,413.1275,413.12875,413.13,413.13125,413.1325,413.13375,413.135,413.13625,413.1375,413.13875;

Schedule:Day:Hourly, d13a8935-a9e2-487a-9edb-ddbaaed6bec5, AnyNumber,413.14,413.14125,413.1425,413.14375,413.145,413.14625,413.1475,413.14875,413.15,413.15125,413.1525,413.15375,413.155,413.15625,413.1575,413.15875,413.16,413.16125,413.1625,413.16375,413.165,413.16625,413.1675,413.16875;

Schedule:Day:Hourly, ae59c1e7-714e-407f-b8be-52a4a351bbc9, AnyNumber,413.17,413.17125,413.1725,413.17375,413.175,413.17625,413.1775,413.17875,413.18,413.18125,413.1825,413.18375,413.185,413.18625,413.1875,413.18875,413.19,413.19125,413.1925,413.19375,413.195,413.19625,413.1975,413.19875;

Schedule:Day:Hourly, d9a41408-955e-40dd-9628-57da0c782e89, AnyNumber,413.2,413.20125,413.2025,413.20375,413.205,413.20625,413.2075,413.20875,413.21,413.21125,413.2125,413.21375,413.215,413.21625,413.2175,413.21875,413.22,413.22125,413.2225,413.22375,413.225,413.22625,413.2275,413.22875;

Schedule:Day:Hourly, 4ca245cc-4201-43a3-99cb-dd9b980594d5, AnyNumber,413.23,413.23083,413.23167,413.2325,413.23333,413.23417,413.235,413.23583,413.23667,413.2375,413.23833,413.23917,413.24,413.24083,413.24167,413.2425,413.24333,413.24417,413.245,413.24583,413.24667,413.2475,413.24833,413.24917;

Schedule:Day:Hourly, cadab7e3-4f20-45f2-81ba-3af535c61408, AnyNumber,413.25,413.25125,413.2525,413.25375,413.255,413.25625,413.2575,413.25875,413.26,413.26125,413.2625,413.26375,413.265,413.26625,413.2675,413.26875,413.27,413.27125,413.2725,413.27375,413.275,413.27625,413.2775,413.27875;

Schedule:Day:Hourly, 7cdccfca-c2c3-4b45-b366-45c11de31f38, AnyNumber,413.28,413.28125,413.2825,413.28375,413.285,413.28625,413.2875,413.28875,413.29,413.29125,413.2925,413.29375,413.295,413.29625,413.2975,413.29875,413.3,413.30125,413.3025,413.30375,413.305,413.30625,413.3075,413.30875;

Schedule:Day:Hourly, 0a775552-928a-4f04-90b5-f3f1620195e7, AnyNumber,413.31,413.31083,413.31167,413.3125,413.31333,413.31417,413.315,413.31583,413.31667,413.3175,413.31833,413.31917,413.32,413.32083,413.32167,413.3225,413.32333,413.32417,413.325,413.32583,413.32667,413.3275,413.32833,413.32917;

Schedule:Day:Hourly, 993c7f5a-2940-4587-99af-9b1cc2c86602, AnyNumber,413.33,413.33125,413.3325,413.33375,413.335,413.33625,413.3375,413.33875,413.34,413.34125,413.3425,413.34375,413.345,413.34625,413.3475,413.34875,413.35,413.35125,413.3525,413.35375,413.355,413.35625,413.3575,413.35875;

Schedule:Day:Hourly, a505190c-255d-4959-a9d9-43f517dd3dd5, AnyNumber,413.36,413.36083,413.36167,413.3625,413.36333,413.36417,413.365,413.36583,413.36667,413.3675,413.36833,413.36917,413.37,413.37083,413.37167,413.3725,413.37333,413.37417,413.375,413.37583,413.37667,413.3775,413.37833,413.37917;

Schedule:Day:Hourly, 37d63c56-4c47-4e12-99e8-fca75e161184, AnyNumber,413.38,413.38125,413.3825,413.38375,413.385,413.38625,413.3875,413.38875,413.39,413.39125,413.3925,413.39375,413.395,413.39625,413.3975,413.39875,413.4,413.40125,413.4025,413.40375,413.405,413.40625,413.4075,413.40875;

Schedule:Day:Hourly, 7ccb6aa2-0bc7-4f30-a7f8-bc8112c9a8fa, AnyNumber,413.41,413.41083,413.41167,413.4125,413.41333,413.41417,413.415,413.41583,413.41667,413.4175,413.41833,413.41917,413.42,413.42083,413.42167,413.4225,413.42333,413.42417,413.425,413.42583,413.42667,413.4275,413.42833,413.42917;

Schedule:Day:Hourly, 23a070d2-7675-4fef-a60f-b3658851b042, AnyNumber,413.43,413.43083,413.43167,413.4325,413.43333,413.43417,413.435,413.43583,413.43667,413.4375,413.43833,413.43917,413.44,413.44083,413.44167,413.4425,413.44333,413.44417,413.445,413.44583,413.44667,413.4475,413.44833,413.44917;

Schedule:Day:Hourly, 1d102ad4-d64c-446b-bd63-c0891b5488af, AnyNumber,413.45,413.45083,413.45167,413.4525,413.45333,413.45417,413.455,413.45583,413.45667,413.4575,413.45833,413.45917,413.46,413.46083,413.46167,413.4625,413.46333,413.46417,413.465,413.46583,413.46667,413.4675,413.46833,413.46917;

Schedule:Day:Hourly, 557d4f5f-f39f-41e0-9f7a-55d7dd9937a9, AnyNumber,413.47,413.47083,413.47167,413.4725,413.47333,413.47417,413.475,413.47583,413.47667,413.4775,413.47833,413.47917,413.48,413.48083,413.48167,413.4825,413.48333,413.48417,413.485,413.48583,413.48667,413.4875,413.48833,413.48917;

Schedule:Day:Hourly, a6fb7afd-7331-47a7-b964-a7151e2f47ea, AnyNumber,413.49,413.49083,413.49167,413.4925,413.49333,413.49417,413.495,413.49583,413.49667,413.4975,413.49833,413.49917,413.5,413.50083,413.50167,413.5025,413.50333,413.50417,413.505,413.50583,413.50667,413.5075,413.50833,413.50917;

Schedule:Day:Hourly, acecf9e9-0290-42ec-97ba-ae533034933a, AnyNumber,413.51,413.51042,413.51083,413.51125,413.51167,413.51208,413.5125,413.51292,413.51333,413.51375,413.51417,413.51458,413.515,413.51542,413.51583,413.51625,413.51667,413.51708,413.5175,413.51792,413.51833,413.51875,413.51917,413.51958;

Schedule:Day:Hourly, 2a1c5a6c-e602-4ded-a43e-7837b914ea1f, AnyNumber,413.52,413.52083,413.52167,413.5225,413.52333,413.52417,413.525,413.52583,413.52667,413.5275,413.52833,413.52917,413.53,413.53083,413.53167,413.5325,413.53333,413.53417,413.535,413.53583,413.53667,413.5375,413.53833,413.53917;

Schedule:Day:Hourly, 489013f3-b7ba-4e1a-a3cd-955413b06766, AnyNumber,413.54,413.54083,413.54167,413.5425,413.54333,413.54417,413.545,413.54583,413.54667,413.5475,413.54833,413.54917,413.55,413.55083,413.55167,413.5525,413.55333,413.55417,413.555,413.55583,413.55667,413.5575,413.55833,413.55917;

Schedule:Day:Hourly, 75df5cee-006b-42e5-8dd4-49dd19e74ff1, AnyNumber,413.56,413.56042,413.56083,413.56125,413.56167,413.56208,413.5625,413.56292,413.56333,413.56375,413.56417,413.56458,413.565,413.56542,413.56583,413.56625,413.56667,413.56708,413.5675,413.56792,413.56833,413.56875,413.56917,413.56958;

Schedule:Day:Hourly, b691a3ea-f3f6-4c79-a3af-86a9507a568e, AnyNumber,413.57,413.57042,413.57083,413.57125,413.57167,413.57208,413.5725,413.57292,413.57333,413.57375,413.57417,413.57458,413.575,413.57542,413.57583,413.57625,413.57667,413.57708,413.5775,413.57792,413.57833,413.57875,413.57917,413.57958;

Schedule:Day:Hourly, 435760e6-26ce-4f57-abac-da91bea3ca91, AnyNumber,413.58,413.58083,413.58167,413.5825,413.58333,413.58417,413.585,413.58583,413.58667,413.5875,413.58833,413.58917,413.59,413.59083,413.59167,413.5925,413.59333,413.59417,413.595,413.59583,413.59667,413.5975,413.59833,413.59917;

Schedule:Day:Hourly, dcdc0180-cdf4-4a97-bb24-68836c75f115, AnyNumber,413.6,413.60042,413.60083,413.60125,413.60167,413.60208,413.6025,413.60292,413.60333,413.60375,413.60417,413.60458,413.605,413.60542,413.60583,413.60625,413.60667,413.60708,413.6075,413.60792,413.60833,413.60875,413.60917,413.60958;

Schedule:Day:Hourly, 955645a3-ce92-4657-8ae8-1d28ec02be37, AnyNumber,413.61,413.61042,413.61083,413.61125,413.61167,413.61208,413.6125,413.61292,413.61333,413.61375,413.61417,413.61458,413.615,413.61542,413.61583,413.61625,413.61667,413.61708,413.6175,413.61792,413.61833,413.61875,413.61917,413.61958;

Schedule:Day:Hourly, 73331c68-0a35-414b-a3c8-6d7062237ddb, AnyNumber,413.62,413.62042,413.62083,413.62125,413.62167,413.62208,413.6225,413.62292,413.62333,413.62375,413.62417,413.62458,413.625,413.62542,413.62583,413.62625,413.62667,413.62708,413.6275,413.62792,413.62833,413.62875,413.62917,413.62958;

Schedule:Day:Hourly, bcf4eca0-1008-4091-8d56-ea38a1e18ec9, AnyNumber,413.63,413.63042,413.63083,413.63125,413.63167,413.63208,413.6325,413.63292,413.63333,413.63375,413.63417,413.63458,413.635,413.63542,413.63583,413.63625,413.63667,413.63708,413.6375,413.63792,413.63833,413.63875,413.63917,413.63958;

Schedule:Day:Hourly, a87ae29b-3ca4-46de-b0b4-b0aff2bcf4c9, AnyNumber,413.64,413.64042,413.64083,413.64125,413.64167,413.64208,413.6425,413.64292,413.64333,413.64375,413.64417,413.64458,413.645,413.64542,413.64583,413.64625,413.64667,413.64708,413.6475,413.64792,413.64833,413.64875,413.64917,413.64958;

Schedule:Day:Hourly, 57098058-d67a-4be7-b97c-df0b34cc03f5, AnyNumber,413.65,413.65042,413.65083,413.65125,413.65167,413.65208,413.6525,413.65292,413.65333,413.65375,413.65417,413.65458,413.655,413.65542,413.65583,413.65625,413.65667,413.65708,413.6575,413.65792,413.65833,413.65875,413.65917,413.65958;

Schedule:Day:Hourly, de58c7b5-18a6-490e-ac2f-54a51484a31c, AnyNumber,413.66,413.66,413.66,413.66,413.66,413.66,413.66,413.66,413.66,413.66,413.66,413.66,413.66,413.66,413.66,413.66,413.66,413.66,413.66,413.66,413.66,413.66,413.66,413.66;

Schedule:Day:Hourly, 8ed853ee-dca4-498b-8765-9caa47d999bc, AnyNumber,413.66,413.66042,413.66083,413.66125,413.66167,413.66208,413.6625,413.66292,413.66333,413.66375,413.66417,413.66458,413.665,413.66542,413.66583,413.66625,413.66667,413.66708,413.6675,413.66792,413.66833,413.66875,413.66917,413.66958;

Schedule:Day:Hourly, 4e3682c3-8642-4747-a63a-d0f4d05ef79f, AnyNumber,413.67,413.67042,413.67083,413.67125,413.67167,413.67208,413.6725,413.67292,413.67333,413.67375,413.67417,413.67458,413.675,413.67542,413.67583,413.67625,413.67667,413.67708,413.6775,413.67792,413.67833,413.67875,413.67917,413.67958;

Schedule:Day:Hourly, 6a9556ea-ea67-403a-997e-f1c8435a7604, AnyNumber,413.68,413.68,413.68,413.68,413.68,413.68,413.68,413.68,413.68,413.68,413.68,413.68,413.68,413.68,413.68,413.68,413.68,413.68,413.68,413.68,413.68,413.68,413.68,413.68;

Schedule:Day:Hourly, 1fb18723-650b-438a-8f5d-8ea75498de95, AnyNumber,413.68,413.68042,413.68083,413.68125,413.68167,413.68208,413.6825,413.68292,413.68333,413.68375,413.68417,413.68458,413.685,413.68542,413.68583,413.68625,413.68667,413.68708,413.6875,413.68792,413.68833,413.68875,413.68917,413.68958;

Schedule:Day:Hourly, c274e42f-97a0-47b5-8bfa-207281507536, AnyNumber,413.69,413.69,413.69,413.69,413.69,413.69,413.69,413.69,413.69,413.69,413.69,413.69,413.69,413.69,413.69,413.69,413.69,413.69,413.69,413.69,413.69,413.69,413.69,413.69;

Schedule:Day:Hourly, ccad81c1-128b-43d2-a7f7-4e7c1d7a014f, AnyNumber,413.69,413.69042,413.69083,413.69125,413.69167,413.69208,413.6925,413.69292,413.69333,413.69375,413.69417,413.69458,413.695,413.69542,413.69583,413.69625,413.69667,413.69708,413.6975,413.69792,413.69833,413.69875,413.69917,413.69958;

Schedule:Day:Hourly, 5c84ce20-141b-472f-9841-017d3c97d307, AnyNumber,413.7,413.7,413.7,413.7,413.7,413.7,413.7,413.7,413.7,413.7,413.7,413.7,413.7,413.7,413.7,413.7,413.7,413.7,413.7,413.7,413.7,413.7,413.7,413.7;

Schedule:Day:Hourly, 39ba4d77-fff1-40f7-af53-096321ef5afa, AnyNumber,413.7,413.70042,413.70083,413.70125,413.70167,413.70208,413.7025,413.70292,413.70333,413.70375,413.70417,413.70458,413.705,413.70542,413.70583,413.70625,413.70667,413.70708,413.7075,413.70792,413.70833,413.70875,413.70917,413.70958;

Schedule:Day:Hourly, 9ea25fcc-1535-48f6-affd-42fb7d0db8cb, AnyNumber,413.71,413.71,413.71,413.71,413.71,413.71,413.71,413.71,413.71,413.71,413.71,413.71,413.71,413.71,413.71,413.71,413.71,413.71,413.71,413.71,413.71,413.71,413.71,413.71;

Schedule:Day:Hourly, ab0d6d57-7aa8-44f2-b22c-d93261cdfe69, AnyNumber,413.71,413.71042,413.71083,413.71125,413.71167,413.71208,413.7125,413.71292,413.71333,413.71375,413.71417,413.71458,413.715,413.71542,413.71583,413.71625,413.71667,413.71708,413.7175,413.71792,413.71833,413.71875,413.71917,413.71958;

Schedule:Day:Hourly, 7afbf382-501b-4d57-93e1-0ce2f35abc0b, AnyNumber,413.72,413.72,413.72,413.72,413.72,413.72,413.72,413.72,413.72,413.72,413.72,413.72,413.72,413.72,413.72,413.72,413.72,413.72,413.72,413.72,413.72,413.72,413.72,413.72;

Schedule:Day:Hourly, 2ee1d5ab-6bbd-4c6e-b818-14c03a06e862, AnyNumber,413.72,413.72042,413.72083,413.72125,413.72167,413.72208,413.7225,413.72292,413.72333,413.72375,413.72417,413.72458,413.725,413.72542,413.72583,413.72625,413.72667,413.72708,413.7275,413.72792,413.72833,413.72875,413.72917,413.72958;

Schedule:Day:Hourly, ca621b36-ba78-441b-9d9a-b6b48ad35bdb, AnyNumber,413.73,413.73,413.73,413.73,413.73,413.73,413.73,413.73,413.73,413.73,413.73,413.73,413.73,413.73,413.73,413.73,413.73,413.73,413.73,413.73,413.73,413.73,413.73,413.73;

Schedule:Day:Hourly, 5d5f87f6-a5a9-48af-b0c0-1c37aded2931, AnyNumber,413.73,413.73042,413.73083,413.73125,413.73167,413.73208,413.7325,413.73292,413.73333,413.73375,413.73417,413.73458,413.735,413.73542,413.73583,413.73625,413.73667,413.73708,413.7375,413.73792,413.73833,413.73875,413.73917,413.73958;

Schedule:Day:Hourly, 09f8f18f-7897-4f67-830f-391fb8a5a888, AnyNumber,413.74,413.74,413.74,413.74,413.74,413.74,413.74,413.74,413.74,413.74,413.74,413.74,413.74,413.74,413.74,413.74,413.74,413.74,413.74,413.74,413.74,413.74,413.74,413.74;
