! ----  This file was generated with Climate Studio 2.3.9455.24557

Version,23.1;

Site:GroundTemperature:BuildingSurface,18,18,18,18,18,18,18,18,18,18,18,18;

Site:GroundReflectance,0.2,0.2,0.2,0.2,0.2,0.2,0.2,0.2,0.2,0.2,0.2,0.2;

Site:GroundReflectance:SnowModifier,
  1.0,                     !- Ground Reflected Solar Modifier
  1.0;                     !- Daylighting Ground Reflected Solar Modifier


Site:WeatherStation, 
10, !- Wind Sensor Height Above Ground {m} 
0.22, !- Wind Speed Profile Exponent {} 
370, !- Wind Speed Profile Boundary Layer Thickness {m} 
1.5; !- Air Temperature Sensor Height Above Ground {m}


ZoneAirContaminantBalance,
  Yes,                       !- Carbon Dioxide Concentration
  GlobalCO2,      !- Outdoor Carbon Dioxide Schedule Name
  No,                       !- Generic Contaminant Concentration
  Off; !- Outdoor Generic Contaminant Schedule Name


!-   ===========  ALL OBJECTS IN CLASS: RUNPERIOD ===========

RunPeriod,
  Climate Studio,                 !- Name
  1,                       !- Begin Month
  1,                       !- Begin Day of Month
  , !- Begin Year
  12,                      !- End Month
  31,                      !- End Day of Month
  , !- End Year
  Sunday,          !- Day of Week for Start Day
  No,                     !- Use Weather File Holidays and Special Days
  No,                     !- Use Weather File Daylight Saving Period
  No,                      !- Apply Weekend Holiday Rule
  Yes,                     !- Use Weather File Rain Indicators
  Yes,                     !- Use Weather File Snow Indicators
  No;                      !- Treat Weather as Actual

RunPeriodControl:DaylightSavingTime,2nd Sunday in March, 1st Sunday in November; !2007


!-   ===========  ALL OBJECTS IN CLASS: SIMULATIONCONTROL ===========

SimulationControl,
Yes, !- Do Zone Sizing Calculation
Yes, !- Do System Sizing Calculation
Yes, !- Do Plant Sizing Calculation
No, !- Run Simulation for Sizing Periods
Yes, !- Run Simulation for Weather File Run Periods
No, !- Do HVAC Sizing Simulation for Sizing Periods
2; !- Maximum Number of HVAC Sizing Simulation Passes


!-   ===========  ALL OBJECTS IN CLASS: CONVERGENCELIMITS ===========

ConvergenceLimits,
0, !- Minimum System Timestep (0 = same as zone timestep)
100, !- Maximum HVAC Iterations
3, !- Minimum Plant Iterations
10; !- Maximum Plant Iterations


!-   ===========  ALL OBJECTS IN CLASS: SCHEDULETYPELIMITS ===========

ScheduleTypeLimits,
  Any Number;              !- Name

ScheduleTypeLimits,
  Fraction,                !- Name
  0.0,                     !- Lower Limit Value {A3}
  1.0,                     !- Upper Limit Value {A3}
  CONTINUOUS;              !- Numeric Type

ScheduleTypeLimits,
  Temperature,             !- Name
  -60,                     !- Lower Limit Value
  200,                     !- Upper Limit Value
  CONTINUOUS;              !- Numeric Type

ScheduleTypeLimits,
  AnyNumber,               !- Name
  -1E11,                   !- Lower Limit Value
  1E11,                    !- Upper Limit Value
  CONTINUOUS;              !- Numeric Type

ScheduleTypeLimits,
  Control Type,            !- Name
  0,                       !- Lower Limit Value
  4,                       !- Upper Limit Value
  DISCRETE;                !- Numeric Type

ScheduleTypeLimits,
  On/Off,                  !- Name
  0,                       !- Lower Limit Value
  1,                       !- Upper Limit Value
  DISCRETE;                !- Numeric Type

Schedule:Constant,
  On,                      !- Name
  On/Off,                  !- Schedule Type Limits Name
  1;                       !- Value

Schedule:Constant,
  Off,                     !- Name
  On/Off,                  !- Schedule Type Limits Name
  0;                       !- Value


! -------------------------ERL SENSORS--------------------------

EnergyManagementSystem:Sensor,                                             
  OutdoorTemp, !- Name                                         
  Environment, !- Output:Variable Index Key Name               
  Site Outdoor Air Drybulb Temperature; !- Output:Variable Name

EnergyManagementSystem:Sensor,                                             
  OutdoorRelHumid, !- Name                                         
  Environment, !- Output:Variable Index Key Name               
  Site Outdoor Air Relative Humidity; !- Output:Variable Name

Output:EnergyManagementSystem,
  Verbose,                 !- Actuator Availability Dictionary Reporting
  Verbose,                 !- Internal Variable Availability Dictionary Reporting
  Verbose;                 !- EMS Runtime Language Debug Output Level

! Output:SQLite, Simple;



SizingPeriod:WeatherFileConditionType ,
    Extreme Summer Weather Period for Design, !- Name
    SummerExtreme , !- Period Selection
    SummerDesignDay , !- Day Type
    No, !- Use Weather File Daylight Saving Period
    No; !- Use Weather File Rain and Snow Indicators

SizingPeriod:WeatherFileConditionType ,
    Extreme Winter Weather Period for Design, !- Name
    WinterExtreme , !- Period Selection
    WinterDesignDay , !- Day Type
    No, !- Use Weather File Daylight Saving Period
    No; !- Use Weather File Rain and Snow Indicators

Sizing:Parameters,
    1.5,                     !- Heating Sizing Factor
    1.5;                     !- Cooling Sizing Factor




GlobalGeometryRules,
  LowerLeftCorner,         !- Starting Vertex Position
  CounterClockWise,        !- Vertex Entry Direction
  Relative;                !- Coordinate System

ShadowCalculation,
    PixelCounting,           !- Shading Calculation Method
    Periodic,                !- Shading Calculation Update Frequency Method
    20,                      !- Shading Calculation Update Frequency
    15000,                   !- Maximum Figures in Shadow Overlap Calculations
    ,                        !- Polygon Clipping Algorithm
    512,                     !- Pixel Counting Resolution
    SimpleSkyDiffuseModeling,  !- Sky Diffuse Modeling Algorithm
    Yes,                     !- Output External Shading Calculation Results
    No,                      !- Disable Self-Shading Within Shading Zone Groups
    No;                      !- Disable Self-Shading From Shading Zone Groups to Other Zones

Building,
    Building,                !- Name
    0,        !- North Axis {deg}
    Suburbs,       !- Terrain
    0.04,                    !- Loads Convergence Tolerance Value
    0.25,                     !- Temperature Convergence Tolerance Value {deltaC}
    FullExterior,            !- Solar Distribution
    30,                      !- Maximum Number of Warmup Days
    7;                       !- Minimum Number of Warmup Days



!-   ===========  ALL OBJECTS IN CLASS: HEATBALANCEALGORITHM ===========

HeatBalanceAlgorithm,
    ConductionTransferFunction,  !- Algorithm
    200,                     !- Surface Temperature Upper Limit {C}
    0.1,                     !- Minimum Surface Convection Heat Transfer Coefficient Value {W/m2-K}
    1000;                    !- Maximum Surface Convection Heat Transfer Coefficient Value {W/m2-K}

Timestep,6;

SurfaceConvectionAlgorithm:Inside,TARP;

SurfaceConvectionAlgorithm:Outside,DOE-2;

! ------------ CONSTRUCTIONS 

! defaultConstruction Type: Facade
Construction, defaultConstruction,
defaultMat_0.25_defaultConstruction;

Construction, defaultConstruction_FLIPPED,
defaultMat_0.25_defaultConstruction;



! Materials
!- Material: defaultMat Type: Concrete
Material, defaultMat_0.25_defaultConstruction ,                !- Material name 
 Rough,                                         !- Roughness
 0.25,   !- @defaultConstruction:defaultMat-Thickness@ [m]
 2.3,   !- @defaultConstruction:defaultMat-Conductivity@ [W/m-K]
 2400,   !- @defaultConstruction:defaultMat-Density@ [kg/m3]
 840,   !- @defaultConstruction:defaultMat-SpecificHeat@ [J/kg-K]
 0.9,   !- @defaultConstruction:defaultMat-ThermalEmittance@
 0.7,   !- @defaultConstruction:defaultMat-SolarAbsorptance@
 0.7;   !- @defaultConstruction:defaultMat-VisibleAbsorptance@



! 90.1-2019 Nonresidential CZ 0 Exterior Wall (Mass) Type: Facade
Construction, 90.1-2019 Nonresidential CZ 0 Exterior Wall (Mass),
Stucco_0.025_90.1-2019 Nonresidential CZ 0 Exterior Wall (Mass),
Concrete_0.203_90.1-2019 Nonresidential CZ 0 Exterior Wall (Mass),
Mineral Wool_0.006340168156952033_90.1-2019 Nonresidential CZ 0 Exterior Wall (Mass),
Plaster_0.013_90.1-2019 Nonresidential CZ 0 Exterior Wall (Mass);

Construction, 90.1-2019 Nonresidential CZ 0 Exterior Wall (Mass)_FLIPPED,
Plaster_0.013_90.1-2019 Nonresidential CZ 0 Exterior Wall (Mass),
Mineral Wool_0.006340168156952033_90.1-2019 Nonresidential CZ 0 Exterior Wall (Mass),
Concrete_0.203_90.1-2019 Nonresidential CZ 0 Exterior Wall (Mass),
Stucco_0.025_90.1-2019 Nonresidential CZ 0 Exterior Wall (Mass);



! Materials
!- Material: Stucco Type: Plaster
Material, Stucco_0.025_90.1-2019 Nonresidential CZ 0 Exterior Wall (Mass) ,                !- Material name 
 Smooth,                                         !- Roughness
 0.025,   !- @90.1-2019 Nonresidential CZ 0 Exterior Wall (Mass):Stucco-Thickness@ [m]
 0.72,   !- @90.1-2019 Nonresidential CZ 0 Exterior Wall (Mass):Stucco-Conductivity@ [W/m-K]
 1856,   !- @90.1-2019 Nonresidential CZ 0 Exterior Wall (Mass):Stucco-Density@ [kg/m3]
 840,   !- @90.1-2019 Nonresidential CZ 0 Exterior Wall (Mass):Stucco-SpecificHeat@ [J/kg-K]
 0.9,   !- @90.1-2019 Nonresidential CZ 0 Exterior Wall (Mass):Stucco-ThermalEmittance@
 0.7,   !- @90.1-2019 Nonresidential CZ 0 Exterior Wall (Mass):Stucco-SolarAbsorptance@
 0.7;   !- @90.1-2019 Nonresidential CZ 0 Exterior Wall (Mass):Stucco-VisibleAbsorptance@

!- Material: Concrete Type: Concrete
Material, Concrete_0.203_90.1-2019 Nonresidential CZ 0 Exterior Wall (Mass) ,                !- Material name 
 Rough,                                         !- Roughness
 0.203,   !- @90.1-2019 Nonresidential CZ 0 Exterior Wall (Mass):Concrete-Thickness@ [m]
 2,   !- @90.1-2019 Nonresidential CZ 0 Exterior Wall (Mass):Concrete-Conductivity@ [W/m-K]
 2400,   !- @90.1-2019 Nonresidential CZ 0 Exterior Wall (Mass):Concrete-Density@ [kg/m3]
 950,   !- @90.1-2019 Nonresidential CZ 0 Exterior Wall (Mass):Concrete-SpecificHeat@ [J/kg-K]
 0.9,   !- @90.1-2019 Nonresidential CZ 0 Exterior Wall (Mass):Concrete-ThermalEmittance@
 0.7,   !- @90.1-2019 Nonresidential CZ 0 Exterior Wall (Mass):Concrete-SolarAbsorptance@
 0.7;   !- @90.1-2019 Nonresidential CZ 0 Exterior Wall (Mass):Concrete-VisibleAbsorptance@

!- Material: Mineral Wool Type: Insulation
Material, Mineral Wool_0.006340168156952033_90.1-2019 Nonresidential CZ 0 Exterior Wall (Mass) ,                !- Material name 
 Rough,                                         !- Roughness
 0.006340168156952033,   !- @90.1-2019 Nonresidential CZ 0 Exterior Wall (Mass):Mineral Wool-Thickness@ [m]
 0.041,   !- @90.1-2019 Nonresidential CZ 0 Exterior Wall (Mass):Mineral Wool-Conductivity@ [W/m-K]
 155,   !- @90.1-2019 Nonresidential CZ 0 Exterior Wall (Mass):Mineral Wool-Density@ [kg/m3]
 1130,   !- @90.1-2019 Nonresidential CZ 0 Exterior Wall (Mass):Mineral Wool-SpecificHeat@ [J/kg-K]
 0.9,   !- @90.1-2019 Nonresidential CZ 0 Exterior Wall (Mass):Mineral Wool-ThermalEmittance@
 0.7,   !- @90.1-2019 Nonresidential CZ 0 Exterior Wall (Mass):Mineral Wool-SolarAbsorptance@
 0.7;   !- @90.1-2019 Nonresidential CZ 0 Exterior Wall (Mass):Mineral Wool-VisibleAbsorptance@

!- Material: Plaster Type: Screed
Material, Plaster_0.013_90.1-2019 Nonresidential CZ 0 Exterior Wall (Mass) ,                !- Material name 
 Rough,                                         !- Roughness
 0.013,   !- @90.1-2019 Nonresidential CZ 0 Exterior Wall (Mass):Plaster-Thickness@ [m]
 1,   !- @90.1-2019 Nonresidential CZ 0 Exterior Wall (Mass):Plaster-Conductivity@ [W/m-K]
 2000,   !- @90.1-2019 Nonresidential CZ 0 Exterior Wall (Mass):Plaster-Density@ [kg/m3]
 1130,   !- @90.1-2019 Nonresidential CZ 0 Exterior Wall (Mass):Plaster-SpecificHeat@ [J/kg-K]
 0.9,   !- @90.1-2019 Nonresidential CZ 0 Exterior Wall (Mass):Plaster-ThermalEmittance@
 0.7,   !- @90.1-2019 Nonresidential CZ 0 Exterior Wall (Mass):Plaster-SolarAbsorptance@
 0.7;   !- @90.1-2019 Nonresidential CZ 0 Exterior Wall (Mass):Plaster-VisibleAbsorptance@



! 90.1-2019 Nonresidential CZ 0 Exterior Floor (Mass) Type: ExteriorFloor
Construction, 90.1-2019 Nonresidential CZ 0 Exterior Floor (Mass),
Stucco_0.025_90.1-2019 Nonresidential CZ 0 Exterior Floor (Mass),
Mineral Wool_0.005244967487677573_90.1-2019 Nonresidential CZ 0 Exterior Floor (Mass),
Concrete_0.102_90.1-2019 Nonresidential CZ 0 Exterior Floor (Mass),
Carpet_0.02_90.1-2019 Nonresidential CZ 0 Exterior Floor (Mass);

Construction, 90.1-2019 Nonresidential CZ 0 Exterior Floor (Mass)_FLIPPED,
Carpet_0.02_90.1-2019 Nonresidential CZ 0 Exterior Floor (Mass),
Concrete_0.102_90.1-2019 Nonresidential CZ 0 Exterior Floor (Mass),
Mineral Wool_0.005244967487677573_90.1-2019 Nonresidential CZ 0 Exterior Floor (Mass),
Stucco_0.025_90.1-2019 Nonresidential CZ 0 Exterior Floor (Mass);



! Materials
!- Material: Stucco Type: Plaster
Material, Stucco_0.025_90.1-2019 Nonresidential CZ 0 Exterior Floor (Mass) ,                !- Material name 
 Smooth,                                         !- Roughness
 0.025,   !- @90.1-2019 Nonresidential CZ 0 Exterior Floor (Mass):Stucco-Thickness@ [m]
 0.72,   !- @90.1-2019 Nonresidential CZ 0 Exterior Floor (Mass):Stucco-Conductivity@ [W/m-K]
 1856,   !- @90.1-2019 Nonresidential CZ 0 Exterior Floor (Mass):Stucco-Density@ [kg/m3]
 840,   !- @90.1-2019 Nonresidential CZ 0 Exterior Floor (Mass):Stucco-SpecificHeat@ [J/kg-K]
 0.9,   !- @90.1-2019 Nonresidential CZ 0 Exterior Floor (Mass):Stucco-ThermalEmittance@
 0.7,   !- @90.1-2019 Nonresidential CZ 0 Exterior Floor (Mass):Stucco-SolarAbsorptance@
 0.7;   !- @90.1-2019 Nonresidential CZ 0 Exterior Floor (Mass):Stucco-VisibleAbsorptance@

!- Material: Mineral Wool Type: Insulation
Material, Mineral Wool_0.005244967487677573_90.1-2019 Nonresidential CZ 0 Exterior Floor (Mass) ,                !- Material name 
 Rough,                                         !- Roughness
 0.005244967487677573,   !- @90.1-2019 Nonresidential CZ 0 Exterior Floor (Mass):Mineral Wool-Thickness@ [m]
 0.041,   !- @90.1-2019 Nonresidential CZ 0 Exterior Floor (Mass):Mineral Wool-Conductivity@ [W/m-K]
 155,   !- @90.1-2019 Nonresidential CZ 0 Exterior Floor (Mass):Mineral Wool-Density@ [kg/m3]
 1130,   !- @90.1-2019 Nonresidential CZ 0 Exterior Floor (Mass):Mineral Wool-SpecificHeat@ [J/kg-K]
 0.9,   !- @90.1-2019 Nonresidential CZ 0 Exterior Floor (Mass):Mineral Wool-ThermalEmittance@
 0.7,   !- @90.1-2019 Nonresidential CZ 0 Exterior Floor (Mass):Mineral Wool-SolarAbsorptance@
 0.7;   !- @90.1-2019 Nonresidential CZ 0 Exterior Floor (Mass):Mineral Wool-VisibleAbsorptance@

!- Material: Concrete Type: Concrete
Material, Concrete_0.102_90.1-2019 Nonresidential CZ 0 Exterior Floor (Mass) ,                !- Material name 
 Rough,                                         !- Roughness
 0.102,   !- @90.1-2019 Nonresidential CZ 0 Exterior Floor (Mass):Concrete-Thickness@ [m]
 2,   !- @90.1-2019 Nonresidential CZ 0 Exterior Floor (Mass):Concrete-Conductivity@ [W/m-K]
 2400,   !- @90.1-2019 Nonresidential CZ 0 Exterior Floor (Mass):Concrete-Density@ [kg/m3]
 950,   !- @90.1-2019 Nonresidential CZ 0 Exterior Floor (Mass):Concrete-SpecificHeat@ [J/kg-K]
 0.9,   !- @90.1-2019 Nonresidential CZ 0 Exterior Floor (Mass):Concrete-ThermalEmittance@
 0.7,   !- @90.1-2019 Nonresidential CZ 0 Exterior Floor (Mass):Concrete-SolarAbsorptance@
 0.7;   !- @90.1-2019 Nonresidential CZ 0 Exterior Floor (Mass):Concrete-VisibleAbsorptance@

!- Material: Carpet Type: Finishes
Material, Carpet_0.02_90.1-2019 Nonresidential CZ 0 Exterior Floor (Mass) ,                !- Material name 
 MediumRough,                                         !- Roughness
 0.02,   !- @90.1-2019 Nonresidential CZ 0 Exterior Floor (Mass):Carpet-Thickness@ [m]
 0.06,   !- @90.1-2019 Nonresidential CZ 0 Exterior Floor (Mass):Carpet-Conductivity@ [W/m-K]
 288,   !- @90.1-2019 Nonresidential CZ 0 Exterior Floor (Mass):Carpet-Density@ [kg/m3]
 1380,   !- @90.1-2019 Nonresidential CZ 0 Exterior Floor (Mass):Carpet-SpecificHeat@ [J/kg-K]
 0.9,   !- @90.1-2019 Nonresidential CZ 0 Exterior Floor (Mass):Carpet-ThermalEmittance@
 0.7,   !- @90.1-2019 Nonresidential CZ 0 Exterior Floor (Mass):Carpet-SolarAbsorptance@
 0.7;   !- @90.1-2019 Nonresidential CZ 0 Exterior Floor (Mass):Carpet-VisibleAbsorptance@



! 90.1-2019 Nonresidential CZ 0 Exterior Roof (Mass) Type: Roof
Construction, 90.1-2019 Nonresidential CZ 0 Exterior Roof (Mass),
Vaporpermeable Felt_0.003_90.1-2019 Nonresidential CZ 0 Exterior Roof (Mass),
XPS Board_0.14713995500631277_90.1-2019 Nonresidential CZ 0 Exterior Roof (Mass),
Concrete_0.203_90.1-2019 Nonresidential CZ 0 Exterior Roof (Mass),
Acoustic Tile_0.005_90.1-2019 Nonresidential CZ 0 Exterior Roof (Mass);

Construction, 90.1-2019 Nonresidential CZ 0 Exterior Roof (Mass)_FLIPPED,
Acoustic Tile_0.005_90.1-2019 Nonresidential CZ 0 Exterior Roof (Mass),
Concrete_0.203_90.1-2019 Nonresidential CZ 0 Exterior Roof (Mass),
XPS Board_0.14713995500631277_90.1-2019 Nonresidential CZ 0 Exterior Roof (Mass),
Vaporpermeable Felt_0.003_90.1-2019 Nonresidential CZ 0 Exterior Roof (Mass);



! Materials
!- Material: Vaporpermeable Felt Type: Finishes
Material, Vaporpermeable Felt_0.003_90.1-2019 Nonresidential CZ 0 Exterior Roof (Mass) ,                !- Material name 
 Rough,                                         !- Roughness
 0.003,   !- @90.1-2019 Nonresidential CZ 0 Exterior Roof (Mass):Vaporpermeable Felt-Thickness@ [m]
 0.909090909,   !- @90.1-2019 Nonresidential CZ 0 Exterior Roof (Mass):Vaporpermeable Felt-Conductivity@ [W/m-K]
 0.5,   !- @90.1-2019 Nonresidential CZ 0 Exterior Roof (Mass):Vaporpermeable Felt-Density@ [kg/m3]
 1800,   !- @90.1-2019 Nonresidential CZ 0 Exterior Roof (Mass):Vaporpermeable Felt-SpecificHeat@ [J/kg-K]
 0.9,   !- @90.1-2019 Nonresidential CZ 0 Exterior Roof (Mass):Vaporpermeable Felt-ThermalEmittance@
 0.7,   !- @90.1-2019 Nonresidential CZ 0 Exterior Roof (Mass):Vaporpermeable Felt-SolarAbsorptance@
 0.7;   !- @90.1-2019 Nonresidential CZ 0 Exterior Roof (Mass):Vaporpermeable Felt-VisibleAbsorptance@

!- Material: XPS Board Type: Insulation
Material, XPS Board_0.14713995500631277_90.1-2019 Nonresidential CZ 0 Exterior Roof (Mass) ,                !- Material name 
 Rough,                                         !- Roughness
 0.14713995500631277,   !- @90.1-2019 Nonresidential CZ 0 Exterior Roof (Mass):XPS Board-Thickness@ [m]
 0.034,   !- @90.1-2019 Nonresidential CZ 0 Exterior Roof (Mass):XPS Board-Conductivity@ [W/m-K]
 35,   !- @90.1-2019 Nonresidential CZ 0 Exterior Roof (Mass):XPS Board-Density@ [kg/m3]
 1400,   !- @90.1-2019 Nonresidential CZ 0 Exterior Roof (Mass):XPS Board-SpecificHeat@ [J/kg-K]
 0.9,   !- @90.1-2019 Nonresidential CZ 0 Exterior Roof (Mass):XPS Board-ThermalEmittance@
 0.7,   !- @90.1-2019 Nonresidential CZ 0 Exterior Roof (Mass):XPS Board-SolarAbsorptance@
 0.7;   !- @90.1-2019 Nonresidential CZ 0 Exterior Roof (Mass):XPS Board-VisibleAbsorptance@

!- Material: Concrete Type: Concrete
Material, Concrete_0.203_90.1-2019 Nonresidential CZ 0 Exterior Roof (Mass) ,                !- Material name 
 Rough,                                         !- Roughness
 0.203,   !- @90.1-2019 Nonresidential CZ 0 Exterior Roof (Mass):Concrete-Thickness@ [m]
 2,   !- @90.1-2019 Nonresidential CZ 0 Exterior Roof (Mass):Concrete-Conductivity@ [W/m-K]
 2400,   !- @90.1-2019 Nonresidential CZ 0 Exterior Roof (Mass):Concrete-Density@ [kg/m3]
 950,   !- @90.1-2019 Nonresidential CZ 0 Exterior Roof (Mass):Concrete-SpecificHeat@ [J/kg-K]
 0.9,   !- @90.1-2019 Nonresidential CZ 0 Exterior Roof (Mass):Concrete-ThermalEmittance@
 0.7,   !- @90.1-2019 Nonresidential CZ 0 Exterior Roof (Mass):Concrete-SolarAbsorptance@
 0.7;   !- @90.1-2019 Nonresidential CZ 0 Exterior Roof (Mass):Concrete-VisibleAbsorptance@

!- Material: Acoustic Tile Type: Finishes
Material, Acoustic Tile_0.005_90.1-2019 Nonresidential CZ 0 Exterior Roof (Mass) ,                !- Material name 
 MediumSmooth,                                         !- Roughness
 0.005,   !- @90.1-2019 Nonresidential CZ 0 Exterior Roof (Mass):Acoustic Tile-Thickness@ [m]
 0.06,   !- @90.1-2019 Nonresidential CZ 0 Exterior Roof (Mass):Acoustic Tile-Conductivity@ [W/m-K]
 368,   !- @90.1-2019 Nonresidential CZ 0 Exterior Roof (Mass):Acoustic Tile-Density@ [kg/m3]
 590,   !- @90.1-2019 Nonresidential CZ 0 Exterior Roof (Mass):Acoustic Tile-SpecificHeat@ [J/kg-K]
 0.9,   !- @90.1-2019 Nonresidential CZ 0 Exterior Roof (Mass):Acoustic Tile-ThermalEmittance@
 0.7,   !- @90.1-2019 Nonresidential CZ 0 Exterior Roof (Mass):Acoustic Tile-SolarAbsorptance@
 0.7;   !- @90.1-2019 Nonresidential CZ 0 Exterior Roof (Mass):Acoustic Tile-VisibleAbsorptance@




! ------------ GLAZING  

! Starphire - Sungate 400 (3) on Starphire - Sungate 400 (5) on Starphire Type: Triple
Construction, Starphire - Sungate 400 (3) on Starphire - Sungate 400 (5) on Starphire,
Starphire  6mm_0.0057_Starphire - Sungate 400 (3) on Starphire - Sungate 400 (5) on Starphire,
Air - EN673_0.0127_Starphire - Sungate 400 (3) on Starphire - Sungate 400 (5) on Starphire,
Sungate 400 on Starphire  6mm - Flipped_0.0057_Starphire - Sungate 400 (3) on Starphire - Sungate 400 (5) on Starphire,
Air - EN673_0.0127_Starphire - Sungate 400 (3) on Starphire - Sungate 400 (5) on Starphire,
Sungate 400 on Starphire  6mm - Flipped_0.0057_Starphire - Sungate 400 (3) on Starphire - Sungate 400 (5) on Starphire;

Construction, Starphire - Sungate 400 (3) on Starphire - Sungate 400 (5) on Starphire_FLIPPED,
Sungate 400 on Starphire  6mm - Flipped_0.0057_Starphire - Sungate 400 (3) on Starphire - Sungate 400 (5) on Starphire,
Air - EN673_0.0127_Starphire - Sungate 400 (3) on Starphire - Sungate 400 (5) on Starphire,
Sungate 400 on Starphire  6mm - Flipped_0.0057_Starphire - Sungate 400 (3) on Starphire - Sungate 400 (5) on Starphire,
Air - EN673_0.0127_Starphire - Sungate 400 (3) on Starphire - Sungate 400 (5) on Starphire,
Starphire  6mm_0.0057_Starphire - Sungate 400 (3) on Starphire - Sungate 400 (5) on Starphire;



! Materials
WindowMaterial:Glazing,Starphire  6mm_0.0057_Starphire - Sungate 400 (3) on Starphire - Sungate 400 (5) on Starphire,                         !- Generic CLEAR 3MM
 Spectral,                               !- Optical data type [SpectralAverage or Spectral]
 Starphire  6mm_0.0057_Starphire - Sungate 400 (3) on Starphire - Sungate 400 (5) on StarphireOptical,                                              !- Name of spectral data set when Optical Data Type = Spectral
 0.0057,                                          !- Thickness [m]
 0.8901,                                          !- Solar transmittance at normal incidence
 0.0784,                                          !- Solar reflectance at normal incidence: front side
 0.0801,                                          !- Solar reflectance at normal incidence: back side
 0.911,                                          !- Visible transmittance at normal incidence
 0.0819,                                          !- Visible reflectance at normal incidence: front side
 0.0827,                                          !- Visible reflectance at normal incidence: back side
 0,                                            !- IR transmittance at normal incidence
 0.84,                                           !- IR emissivity: front side
 0.84,                                           !- IR emissivity: back side
 1.0003,                                            !- Conductivity [W/m-K]
 1;                                             !- Dirt Correction Factor for Solar and Visible Transmittance

MaterialProperty:GlazingSpectralData, Starphire  6mm_0.0057_Starphire - Sungate 400 (3) on Starphire - Sungate 400 (5) on StarphireOptical,  !- Name 
0.3, 0.3137, 0.0499, 0.0323,
0.305, 0.4279, 0.0563, 0.057,
0.31, 0.5314, 0.0612, 0.0631,
0.315, 0.6222, 0.0665, 0.0692,
0.32, 0.6985, 0.0714, 0.0748,
0.325, 0.7594, 0.0759, 0.0796,
0.33, 0.8061, 0.0794, 0.0835,
0.335, 0.8399, 0.082, 0.086,
0.34, 0.8639, 0.0839, 0.0881,
0.345, 0.8797, 0.0849, 0.0889,
0.35, 0.8901, 0.0857, 0.0895,
0.355, 0.8972, 0.0863, 0.0901,
0.36, 0.9013, 0.0865, 0.09,
0.365, 0.9037, 0.0864, 0.0893,
0.37, 0.9054, 0.0863, 0.0882,
0.375, 0.9058, 0.0862, 0.0879,
0.38, 0.9056, 0.0861, 0.0879,
0.385, 0.9066, 0.0859, 0.0875,
0.39, 0.9075, 0.0859, 0.0869,
0.395, 0.908, 0.0858, 0.0867,
0.4, 0.9081, 0.0855, 0.0862,
0.41, 0.908, 0.0853, 0.086,
0.42, 0.9081, 0.0849, 0.0856,
0.43, 0.9085, 0.0846, 0.0854,
0.44, 0.9087, 0.0844, 0.0851,
0.45, 0.9093, 0.0842, 0.0849,
0.46, 0.9102, 0.0839, 0.0844,
0.47, 0.9101, 0.0835, 0.0839,
0.48, 0.9107, 0.0833, 0.0839,
0.49, 0.9114, 0.0833, 0.0837,
0.5, 0.9118, 0.083, 0.0831,
0.51, 0.9123, 0.0827, 0.083,
0.52, 0.912, 0.0825, 0.0828,
0.53, 0.9121, 0.0824, 0.0828,
0.54, 0.912, 0.0822, 0.0827,
0.55, 0.9122, 0.0821, 0.0828,
0.56, 0.9119, 0.0819, 0.0827,
0.57, 0.9116, 0.0818, 0.0828,
0.58, 0.9109, 0.0815, 0.0825,
0.59, 0.9104, 0.0814, 0.0826,
0.6, 0.9096, 0.0812, 0.0824,
0.61, 0.9091, 0.081, 0.0823,
0.62, 0.908, 0.0807, 0.0821,
0.63, 0.9068, 0.0806, 0.0822,
0.64, 0.9062, 0.0804, 0.0821,
0.65, 0.9051, 0.0802, 0.0822,
0.66, 0.9039, 0.0799, 0.0819,
0.67, 0.903, 0.0798, 0.0816,
0.68, 0.9017, 0.0795, 0.0816,
0.69, 0.9006, 0.0793, 0.0816,
0.7, 0.8994, 0.0791, 0.0815,
0.71, 0.8988, 0.079, 0.0814,
0.72, 0.8974, 0.0788, 0.0813,
0.73, 0.896, 0.0786, 0.0812,
0.74, 0.8951, 0.0785, 0.081,
0.75, 0.893, 0.0782, 0.0808,
0.76, 0.8916, 0.0779, 0.0805,
0.77, 0.8908, 0.0778, 0.0805,
0.78, 0.8886, 0.0776, 0.08,
0.79, 0.8876, 0.0774, 0.0799,
0.8, 0.8866, 0.0771, 0.0795,
0.81, 0.8858, 0.0773, 0.0798,
0.82, 0.8842, 0.077, 0.0795,
0.83, 0.884, 0.0768, 0.0791,
0.84, 0.8825, 0.0767, 0.0793,
0.85, 0.8791, 0.0762, 0.0784,
0.86, 0.8796, 0.0777, 0.0802,
0.87, 0.8798, 0.0773, 0.08,
0.88, 0.8789, 0.0772, 0.0796,
0.89, 0.8778, 0.077, 0.0797,
0.9, 0.877, 0.0768, 0.0789,
0.91, 0.8763, 0.0766, 0.0789,
0.92, 0.8753, 0.0763, 0.0782,
0.93, 0.8745, 0.0763, 0.0786,
0.94, 0.874, 0.0764, 0.0788,
0.95, 0.8734, 0.0761, 0.0783,
0.96, 0.8727, 0.076, 0.0782,
0.97, 0.8721, 0.0759, 0.0781,
0.98, 0.8716, 0.0758, 0.0781,
0.99, 0.8711, 0.0758, 0.0781,
1, 0.8708, 0.0756, 0.078,
1.05, 0.869, 0.0754, 0.0776,
1.1, 0.8684, 0.075, 0.0772,
1.15, 0.8684, 0.0748, 0.077,
1.2, 0.8688, 0.0747, 0.0768,
1.25, 0.8698, 0.0746, 0.0766,
1.3, 0.8715, 0.0746, 0.0764,
1.35, 0.8737, 0.0745, 0.0761,
1.4, 0.874, 0.0744, 0.0762,
1.45, 0.878, 0.0746, 0.0762,
1.5, 0.8827, 0.0747, 0.0763,
1.55, 0.8858, 0.0748, 0.0763,
1.6, 0.8882, 0.0748, 0.0761,
1.65, 0.8887, 0.0745, 0.0756,
1.7, 0.8884, 0.0744, 0.0756,
1.75, 0.8862, 0.074, 0.0751,
1.8, 0.8828, 0.0735, 0.0745,
1.85, 0.8801, 0.0731, 0.0741,
1.9, 0.8767, 0.0725, 0.0734,
1.95, 0.8746, 0.0725, 0.0734,
2, 0.8705, 0.0718, 0.0724,
2.05, 0.8678, 0.0715, 0.0722,
2.1, 0.865, 0.0711, 0.072,
2.15, 0.8581, 0.0701, 0.0705,
2.2, 0.8366, 0.0686, 0.0692,
2.25, 0.83, 0.0681, 0.0686,
2.3, 0.8356, 0.0688, 0.0697,
2.35, 0.8346, 0.0676, 0.0682,
2.4, 0.8297, 0.0678, 0.0674,
2.45, 0.8133, 0.0661, 0.0659,
2.5, 0.8014, 0.0646, 0.0641;

! Gas: Air - EN673
WindowMaterial:Gas,Air - EN673_0.0127_Starphire - Sungate 400 (3) on Starphire - Sungate 400 (5) on Starphire ,                !- Material name 
 AIR,                                           !- Gas type (Air - Argon - Krypton - Xenon - SF6 - Custom)
 0.0127;                                         !- Thickness [m]

WindowMaterial:Glazing,Sungate 400 on Starphire  6mm - Flipped_0.0057_Starphire - Sungate 400 (3) on Starphire - Sungate 400 (5) on Starphire,                         !- Generic CLEAR 3MM
 Spectral,                               !- Optical data type [SpectralAverage or Spectral]
 Sungate 400 on Starphire  6mm - Flipped_0.0057_Starphire - Sungate 400 (3) on Starphire - Sungate 400 (5) on StarphireOptical,                                              !- Name of spectral data set when Optical Data Type = Spectral
 0.0057,                                          !- Thickness [m]
 0.7242,                                          !- Solar transmittance at normal incidence
 0.1558,                                          !- Solar reflectance at normal incidence: front side
 0.1769,                                          !- Solar reflectance at normal incidence: back side
 0.8779,                                          !- Visible transmittance at normal incidence
 0.0719,                                          !- Visible reflectance at normal incidence: front side
 0.0643,                                          !- Visible reflectance at normal incidence: back side
 0,                                            !- IR transmittance at normal incidence
 0.84,                                           !- IR emissivity: front side
 0.1153,                                           !- IR emissivity: back side
 1.0003,                                            !- Conductivity [W/m-K]
 1;                                             !- Dirt Correction Factor for Solar and Visible Transmittance

MaterialProperty:GlazingSpectralData, Sungate 400 on Starphire  6mm - Flipped_0.0057_Starphire - Sungate 400 (3) on Starphire - Sungate 400 (5) on StarphireOptical,  !- Name 
0.3, 0.0686, 0.0456, 0.268,
0.305, 0.0937, 0.0818, 0.2706,
0.31, 0.1164, 0.1015, 0.2763,
0.315, 0.1422, 0.1222, 0.2827,
0.32, 0.1748, 0.1416, 0.2863,
0.325, 0.2097, 0.159, 0.2881,
0.33, 0.244, 0.1731, 0.2885,