! ----  This file was generated with Climate Studio 2.0.8783.14989

Version,23.1;

Site:GroundTemperature:BuildingSurface,18,18,18,18,18,18,18,18,18,18,18,18;

Site:GroundReflectance,0.2,0.2,0.2,0.2,0.2,0.2,0.2,0.2,0.2,0.2,0.2,0.2;

Site:GroundReflectance:SnowModifier,
  1.0,                     !- Ground Reflected Solar Modifier
  1.0;                     !- Daylighting Ground Reflected Solar Modifier


Site:WeatherStation, 
10, !- Wind Sensor Height Above Ground {m} 
0.22, !- Wind Speed Profile Exponent {} 
370, !- Wind Speed Profile Boundary Layer Thickness {m} 
1.5; !- Air Temperature Sensor Height Above Ground {m}


ZoneAirContaminantBalance,
  Yes,                       !- Carbon Dioxide Concentration
  GlobalCO2,      !- Outdoor Carbon Dioxide Schedule Name
  No,                       !- Generic Contaminant Concentration
  Off; !- Outdoor Generic Contaminant Schedule Name


!-   ===========  ALL OBJECTS IN CLASS: RUNPERIOD ===========

RunPeriod,
  Climate Studio,                 !- Name
  1,                       !- Begin Month
  1,                       !- Begin Day of Month
  , !- Begin Year
  12,                      !- End Month
  31,                      !- End Day of Month
  , !- End Year
  Sunday,          !- Day of Week for Start Day
  No,                     !- Use Weather File Holidays and Special Days
  No,                     !- Use Weather File Daylight Saving Period
  No,                      !- Apply Weekend Holiday Rule
  Yes,                     !- Use Weather File Rain Indicators
  Yes,                     !- Use Weather File Snow Indicators
  No;                      !- Treat Weather as Actual

RunPeriodControl:DaylightSavingTime,2nd Sunday in March, 1st Sunday in November; !2007


!-   ===========  ALL OBJECTS IN CLASS: SIMULATIONCONTROL ===========

SimulationControl,
Yes, !- Do Zone Sizing Calculation
Yes, !- Do System Sizing Calculation
Yes, !- Do Plant Sizing Calculation
No, !- Run Simulation for Sizing Periods
Yes, !- Run Simulation for Weather File Run Periods
No, !- Do HVAC Sizing Simulation for Sizing Periods
2; !- Maximum Number of HVAC Sizing Simulation Passes


!-   ===========  ALL OBJECTS IN CLASS: CONVERGENCELIMITS ===========

ConvergenceLimits,
0, !- Minimum System Timestep (0 = same as zone timestep)
50, !- Maximum HVAC Iterations
3, !- Minimum Plant Iterations
9; !- Maximum Plant Iterations


!-   ===========  ALL OBJECTS IN CLASS: SCHEDULETYPELIMITS ===========

ScheduleTypeLimits,
  Any Number;              !- Name

ScheduleTypeLimits,
  Fraction,                !- Name
  0.0,                     !- Lower Limit Value {A3}
  1.0,                     !- Upper Limit Value {A3}
  CONTINUOUS;              !- Numeric Type

ScheduleTypeLimits,
  Temperature,             !- Name
  -60,                     !- Lower Limit Value
  200,                     !- Upper Limit Value
  CONTINUOUS;              !- Numeric Type

ScheduleTypeLimits,
  AnyNumber,               !- Name
  -1E11,                   !- Lower Limit Value
  1E11,                    !- Upper Limit Value
  CONTINUOUS;              !- Numeric Type

ScheduleTypeLimits,
  Control Type,            !- Name
  0,                       !- Lower Limit Value
  4,                       !- Upper Limit Value
  DISCRETE;                !- Numeric Type

ScheduleTypeLimits,
  On/Off,                  !- Name
  0,                       !- Lower Limit Value
  1,                       !- Upper Limit Value
  DISCRETE;                !- Numeric Type

Schedule:Constant,
  On,                      !- Name
  On/Off,                  !- Schedule Type Limits Name
  1;                       !- Value

Schedule:Constant,
  Off,                     !- Name
  On/Off,                  !- Schedule Type Limits Name
  0;                       !- Value


! -------------------------ERL SENSORS--------------------------

EnergyManagementSystem:Sensor,                                             
  OutdoorTemp, !- Name                                         
  Environment, !- Output:Variable Index Key Name               
  Site Outdoor Air Drybulb Temperature; !- Output:Variable Name

EnergyManagementSystem:Sensor,                                             
  OutdoorRelHumid, !- Name                                         
  Environment, !- Output:Variable Index Key Name               
  Site Outdoor Air Relative Humidity; !- Output:Variable Name

Output:EnergyManagementSystem,
  Verbose,                 !- Actuator Availability Dictionary Reporting
  Verbose,                 !- Internal Variable Availability Dictionary Reporting
  Verbose;                 !- EMS Runtime Language Debug Output Level

! Output:SQLite, Simple;



SizingPeriod:WeatherFileConditionType ,
    Extreme Summer Weather Period for Design, !- Name
    SummerExtreme , !- Period Selection
    SummerDesignDay , !- Day Type
    No, !- Use Weather File Daylight Saving Period
    No; !- Use Weather File Rain and Snow Indicators

SizingPeriod:WeatherFileConditionType ,
    Extreme Winter Weather Period for Design, !- Name
    WinterExtreme , !- Period Selection
    WinterDesignDay , !- Day Type
    No, !- Use Weather File Daylight Saving Period
    No; !- Use Weather File Rain and Snow Indicators

Sizing:Parameters,
    1.5,                     !- Heating Sizing Factor
    1.5;                     !- Cooling Sizing Factor




GlobalGeometryRules,
  LowerLeftCorner,         !- Starting Vertex Position
  CounterClockWise,        !- Vertex Entry Direction
  Relative;                !- Coordinate System

ShadowCalculation,
    PixelCounting,           !- Shading Calculation Method
    Periodic,                !- Shading Calculation Update Frequency Method
    20,                      !- Shading Calculation Update Frequency
    15000,                   !- Maximum Figures in Shadow Overlap Calculations
    ,                        !- Polygon Clipping Algorithm
    512,                     !- Pixel Counting Resolution
    SimpleSkyDiffuseModeling,  !- Sky Diffuse Modeling Algorithm
    Yes,                     !- Output External Shading Calculation Results
    No,                      !- Disable Self-Shading Within Shading Zone Groups
    No;                      !- Disable Self-Shading From Shading Zone Groups to Other Zones

Building,
    Building,                !- Name
    0,        !- North Axis {deg}
    Suburbs,       !- Terrain
    0.04,                    !- Loads Convergence Tolerance Value
    0.25,                     !- Temperature Convergence Tolerance Value {deltaC}
    FullExterior,            !- Solar Distribution
    25,                      !- Maximum Number of Warmup Days
    6;                       !- Minimum Number of Warmup Days



!-   ===========  ALL OBJECTS IN CLASS: HEATBALANCEALGORITHM ===========

HeatBalanceAlgorithm,
    ConductionTransferFunction,  !- Algorithm
    200,                     !- Surface Temperature Upper Limit {C}
    0.1,                     !- Minimum Surface Convection Heat Transfer Coefficient Value {W/m2-K}
    1000;                    !- Maximum Surface Convection Heat Transfer Coefficient Value {W/m2-K}

Timestep,6;

SurfaceConvectionAlgorithm:Inside,TARP;

SurfaceConvectionAlgorithm:Outside,DOE-2;

! ------------ CONSTRUCTIONS 

! defaultConstruction Type: Facade
Construction, defaultConstruction,
defaultMat_0.25_defaultConstruction;

Construction, defaultConstruction_FLIPPED,
defaultMat_0.25_defaultConstruction;



! Materials
!- Material: defaultMat Type: Concrete
Material, defaultMat_0.25_defaultConstruction ,                !- Material name 
 Rough,                                         !- Roughness
 0.25,   !- @defaultConstruction:defaultMat-Thickness@ [m]
 2.3,   !- @defaultConstruction:defaultMat-Conductivity@ [W/m-K]
 2400,   !- @defaultConstruction:defaultMat-Density@ [kg/m3]
 840,   !- @defaultConstruction:defaultMat-SpecificHeat@ [J/kg-K]
 0.9,   !- @defaultConstruction:defaultMat-ThermalEmittance@
 0.7,   !- @defaultConstruction:defaultMat-SolarAbsorptance@
 0.7;   !- @defaultConstruction:defaultMat-VisibleAbsorptance@



! 90.1-2019 Nonresidential CZ 0 Exterior Wall (Mass) Type: Facade
Construction, 90.1-2019 Nonresidential CZ 0 Exterior Wall (Mass),
Stucco_0.025_90.1-2019 Nonresidential CZ 0 Exterior Wall (Mass),
Concrete_0.203_90.1-2019 Nonresidential CZ 0 Exterior Wall (Mass),
Mineral Wool_0.006340168156952033_90.1-2019 Nonresidential CZ 0 Exterior Wall (Mass),
Plaster_0.013_90.1-2019 Nonresidential CZ 0 Exterior Wall (Mass);

Construction, 90.1-2019 Nonresidential CZ 0 Exterior Wall (Mass)_FLIPPED,
Plaster_0.013_90.1-2019 Nonresidential CZ 0 Exterior Wall (Mass),
Mineral Wool_0.006340168156952033_90.1-2019 Nonresidential CZ 0 Exterior Wall (Mass),
Concrete_0.203_90.1-2019 Nonresidential CZ 0 Exterior Wall (Mass),
Stucco_0.025_90.1-2019 Nonresidential CZ 0 Exterior Wall (Mass);



! Materials
!- Material: Stucco Type: Plaster
Material, Stucco_0.025_90.1-2019 Nonresidential CZ 0 Exterior Wall (Mass) ,                !- Material name 
 Smooth,                                         !- Roughness
 0.025,   !- @90.1-2019 Nonresidential CZ 0 Exterior Wall (Mass):Stucco-Thickness@ [m]
 0.72,   !- @90.1-2019 Nonresidential CZ 0 Exterior Wall (Mass):Stucco-Conductivity@ [W/m-K]
 1856,   !- @90.1-2019 Nonresidential CZ 0 Exterior Wall (Mass):Stucco-Density@ [kg/m3]
 840,   !- @90.1-2019 Nonresidential CZ 0 Exterior Wall (Mass):Stucco-SpecificHeat@ [J/kg-K]
 0.9,   !- @90.1-2019 Nonresidential CZ 0 Exterior Wall (Mass):Stucco-ThermalEmittance@
 0.7,   !- @90.1-2019 Nonresidential CZ 0 Exterior Wall (Mass):Stucco-SolarAbsorptance@
 0.7;   !- @90.1-2019 Nonresidential CZ 0 Exterior Wall (Mass):Stucco-VisibleAbsorptance@

!- Material: Concrete Type: Concrete
Material, Concrete_0.203_90.1-2019 Nonresidential CZ 0 Exterior Wall (Mass) ,                !- Material name 
 Rough,                                         !- Roughness
 0.203,   !- @90.1-2019 Nonresidential CZ 0 Exterior Wall (Mass):Concrete-Thickness@ [m]
 2,   !- @90.1-2019 Nonresidential CZ 0 Exterior Wall (Mass):Concrete-Conductivity@ [W/m-K]
 2400,   !- @90.1-2019 Nonresidential CZ 0 Exterior Wall (Mass):Concrete-Density@ [kg/m3]
 950,   !- @90.1-2019 Nonresidential CZ 0 Exterior Wall (Mass):Concrete-SpecificHeat@ [J/kg-K]
 0.9,   !- @90.1-2019 Nonresidential CZ 0 Exterior Wall (Mass):Concrete-ThermalEmittance@
 0.7,   !- @90.1-2019 Nonresidential CZ 0 Exterior Wall (Mass):Concrete-SolarAbsorptance@
 0.7;   !- @90.1-2019 Nonresidential CZ 0 Exterior Wall (Mass):Concrete-VisibleAbsorptance@

!- Material: Mineral Wool Type: Insulation
Material, Mineral Wool_0.006340168156952033_90.1-2019 Nonresidential CZ 0 Exterior Wall (Mass) ,                !- Material name 
 Rough,                                         !- Roughness
 0.006340168156952033,   !- @90.1-2019 Nonresidential CZ 0 Exterior Wall (Mass):Mineral Wool-Thickness@ [m]
 0.041,   !- @90.1-2019 Nonresidential CZ 0 Exterior Wall (Mass):Mineral Wool-Conductivity@ [W/m-K]
 155,   !- @90.1-2019 Nonresidential CZ 0 Exterior Wall (Mass):Mineral Wool-Density@ [kg/m3]
 1130,   !- @90.1-2019 Nonresidential CZ 0 Exterior Wall (Mass):Mineral Wool-SpecificHeat@ [J/kg-K]
 0.9,   !- @90.1-2019 Nonresidential CZ 0 Exterior Wall (Mass):Mineral Wool-ThermalEmittance@
 0.7,   !- @90.1-2019 Nonresidential CZ 0 Exterior Wall (Mass):Mineral Wool-SolarAbsorptance@
 0.7;   !- @90.1-2019 Nonresidential CZ 0 Exterior Wall (Mass):Mineral Wool-VisibleAbsorptance@

!- Material: Plaster Type: Screed
Material, Plaster_0.013_90.1-2019 Nonresidential CZ 0 Exterior Wall (Mass) ,                !- Material name 
 Rough,                                         !- Roughness
 0.013,   !- @90.1-2019 Nonresidential CZ 0 Exterior Wall (Mass):Plaster-Thickness@ [m]
 1,   !- @90.1-2019 Nonresidential CZ 0 Exterior Wall (Mass):Plaster-Conductivity@ [W/m-K]
 2000,   !- @90.1-2019 Nonresidential CZ 0 Exterior Wall (Mass):Plaster-Density@ [kg/m3]
 1130,   !- @90.1-2019 Nonresidential CZ 0 Exterior Wall (Mass):Plaster-SpecificHeat@ [J/kg-K]
 0.9,   !- @90.1-2019 Nonresidential CZ 0 Exterior Wall (Mass):Plaster-ThermalEmittance@
 0.7,   !- @90.1-2019 Nonresidential CZ 0 Exterior Wall (Mass):Plaster-SolarAbsorptance@
 0.7;   !- @90.1-2019 Nonresidential CZ 0 Exterior Wall (Mass):Plaster-VisibleAbsorptance@



! 90.1-2019 Nonresidential CZ 0 Exterior Floor (Mass) Type: ExteriorFloor
Construction, 90.1-2019 Nonresidential CZ 0 Exterior Floor (Mass),
Stucco_0.025_90.1-2019 Nonresidential CZ 0 Exterior Floor (Mass),
Mineral Wool_0.005244967487677573_90.1-2019 Nonresidential CZ 0 Exterior Floor (Mass),
Concrete_0.102_90.1-2019 Nonresidential CZ 0 Exterior Floor (Mass),
Carpet_0.02_90.1-2019 Nonresidential CZ 0 Exterior Floor (Mass);

Construction, 90.1-2019 Nonresidential CZ 0 Exterior Floor (Mass)_FLIPPED,
Carpet_0.02_90.1-2019 Nonresidential CZ 0 Exterior Floor (Mass),
Concrete_0.102_90.1-2019 Nonresidential CZ 0 Exterior Floor (Mass),
Mineral Wool_0.005244967487677573_90.1-2019 Nonresidential CZ 0 Exterior Floor (Mass),
Stucco_0.025_90.1-2019 Nonresidential CZ 0 Exterior Floor (Mass);



! Materials
!- Material: Stucco Type: Plaster
Material, Stucco_0.025_90.1-2019 Nonresidential CZ 0 Exterior Floor (Mass) ,                !- Material name 
 Smooth,                                         !- Roughness
 0.025,   !- @90.1-2019 Nonresidential CZ 0 Exterior Floor (Mass):Stucco-Thickness@ [m]
 0.72,   !- @90.1-2019 Nonresidential CZ 0 Exterior Floor (Mass):Stucco-Conductivity@ [W/m-K]
 1856,   !- @90.1-2019 Nonresidential CZ 0 Exterior Floor (Mass):Stucco-Density@ [kg/m3]
 840,   !- @90.1-2019 Nonresidential CZ 0 Exterior Floor (Mass):Stucco-SpecificHeat@ [J/kg-K]
 0.9,   !- @90.1-2019 Nonresidential CZ 0 Exterior Floor (Mass):Stucco-ThermalEmittance@
 0.7,   !- @90.1-2019 Nonresidential CZ 0 Exterior Floor (Mass):Stucco-SolarAbsorptance@
 0.7;   !- @90.1-2019 Nonresidential CZ 0 Exterior Floor (Mass):Stucco-VisibleAbsorptance@

!- Material: Mineral Wool Type: Insulation
Material, Mineral Wool_0.005244967487677573_90.1-2019 Nonresidential CZ 0 Exterior Floor (Mass) ,                !- Material name 
 Rough,                                         !- Roughness
 0.005244967487677573,   !- @90.1-2019 Nonresidential CZ 0 Exterior Floor (Mass):Mineral Wool-Thickness@ [m]
 0.041,   !- @90.1-2019 Nonresidential CZ 0 Exterior Floor (Mass):Mineral Wool-Conductivity@ [W/m-K]
 155,   !- @90.1-2019 Nonresidential CZ 0 Exterior Floor (Mass):Mineral Wool-Density@ [kg/m3]
 1130,   !- @90.1-2019 Nonresidential CZ 0 Exterior Floor (Mass):Mineral Wool-SpecificHeat@ [J/kg-K]
 0.9,   !- @90.1-2019 Nonresidential CZ 0 Exterior Floor (Mass):Mineral Wool-ThermalEmittance@
 0.7,   !- @90.1-2019 Nonresidential CZ 0 Exterior Floor (Mass):Mineral Wool-SolarAbsorptance@
 0.7;   !- @90.1-2019 Nonresidential CZ 0 Exterior Floor (Mass):Mineral Wool-VisibleAbsorptance@

!- Material: Concrete Type: Concrete
Material, Concrete_0.102_90.1-2019 Nonresidential CZ 0 Exterior Floor (Mass) ,                !- Material name 
 Rough,                                         !- Roughness
 0.102,   !- @90.1-2019 Nonresidential CZ 0 Exterior Floor (Mass):Concrete-Thickness@ [m]
 2,   !- @90.1-2019 Nonresidential CZ 0 Exterior Floor (Mass):Concrete-Conductivity@ [W/m-K]
 2400,   !- @90.1-2019 Nonresidential CZ 0 Exterior Floor (Mass):Concrete-Density@ [kg/m3]
 950,   !- @90.1-2019 Nonresidential CZ 0 Exterior Floor (Mass):Concrete-SpecificHeat@ [J/kg-K]
 0.9,   !- @90.1-2019 Nonresidential CZ 0 Exterior Floor (Mass):Concrete-ThermalEmittance@
 0.7,   !- @90.1-2019 Nonresidential CZ 0 Exterior Floor (Mass):Concrete-SolarAbsorptance@
 0.7;   !- @90.1-2019 Nonresidential CZ 0 Exterior Floor (Mass):Concrete-VisibleAbsorptance@

!- Material: Carpet Type: Finishes
Material, Carpet_0.02_90.1-2019 Nonresidential CZ 0 Exterior Floor (Mass) ,                !- Material name 
 MediumRough,                                         !- Roughness
 0.02,   !- @90.1-2019 Nonresidential CZ 0 Exterior Floor (Mass):Carpet-Thickness@ [m]
 0.06,   !- @90.1-2019 Nonresidential CZ 0 Exterior Floor (Mass):Carpet-Conductivity@ [W/m-K]
 288,   !- @90.1-2019 Nonresidential CZ 0 Exterior Floor (Mass):Carpet-Density@ [kg/m3]
 1380,   !- @90.1-2019 Nonresidential CZ 0 Exterior Floor (Mass):Carpet-SpecificHeat@ [J/kg-K]
 0.9,   !- @90.1-2019 Nonresidential CZ 0 Exterior Floor (Mass):Carpet-ThermalEmittance@
 0.7,   !- @90.1-2019 Nonresidential CZ 0 Exterior Floor (Mass):Carpet-SolarAbsorptance@
 0.7;   !- @90.1-2019 Nonresidential CZ 0 Exterior Floor (Mass):Carpet-VisibleAbsorptance@



! UVal_0.4_Mass Type: Facade
Construction, UVal_0.4_Mass,
Mineral Wool_0.0915_UVal_0.4_Mass,
General Concrete_0.2_UVal_0.4_Mass;

Construction, UVal_0.4_Mass_FLIPPED,
General Concrete_0.2_UVal_0.4_Mass,
Mineral Wool_0.0915_UVal_0.4_Mass;



! Materials
!- Material: Mineral Wool Type: Insulation
Material, Mineral Wool_0.0915_UVal_0.4_Mass ,                !- Material name 
 Rough,                                         !- Roughness
 0.0915,   !- @UVal_0.4_Mass:Mineral Wool-Thickness@ [m]
 0.041,   !- @UVal_0.4_Mass:Mineral Wool-Conductivity@ [W/m-K]
 155,   !- @UVal_0.4_Mass:Mineral Wool-Density@ [kg/m3]
 1130,   !- @UVal_0.4_Mass:Mineral Wool-SpecificHeat@ [J/kg-K]
 0.9,   !- @UVal_0.4_Mass:Mineral Wool-ThermalEmittance@
 0.7,   !- @UVal_0.4_Mass:Mineral Wool-SolarAbsorptance@
 0.7;   !- @UVal_0.4_Mass:Mineral Wool-VisibleAbsorptance@

!- Material: General Concrete Type: Concrete
Material, General Concrete_0.2_UVal_0.4_Mass ,                !- Material name 
 Rough,                                         !- Roughness
 0.2,   !- @UVal_0.4_Mass:General Concrete-Thickness@ [m]
 2,   !- @UVal_0.4_Mass:General Concrete-Conductivity@ [W/m-K]
 2400,   !- @UVal_0.4_Mass:General Concrete-Density@ [kg/m3]
 950,   !- @UVal_0.4_Mass:General Concrete-SpecificHeat@ [J/kg-K]
 0.9,   !- @UVal_0.4_Mass:General Concrete-ThermalEmittance@
 0.7,   !- @UVal_0.4_Mass:General Concrete-SolarAbsorptance@
 0.7;   !- @UVal_0.4_Mass:General Concrete-VisibleAbsorptance@




! ------------ GLAZING  

! DblClear Air 6_6_6 Type: Double
Construction, DblClear Air 6_6_6,
Generic Clear Glass 6mm_0.006_DblClear Air 6_6_6,
AIR_0.006_0.006_DblClear Air 6_6_6,
Generic Clear Glass 6mm_0.006_DblClear Air 6_6_6;

Construction, DblClear Air 6_6_6_FLIPPED,
Generic Clear Glass 6mm_0.006_DblClear Air 6_6_6,
AIR_0.006_0.006_DblClear Air 6_6_6,
Generic Clear Glass 6mm_0.006_DblClear Air 6_6_6;



! Materials
WindowMaterial:Glazing,Generic Clear Glass 6mm_0.006_DblClear Air 6_6_6,                         !- Generic CLEAR 3MM
 SpectralAverage,                               !- Optical data type [SpectralAverage or Spectral]
 ,                                              !- Name of spectral data set when Optical Data Type = Spectral
 0.006,                                          !- Thickness [m]
 0.68,                                          !- Solar transmittance at normal incidence
 0.09,                                          !- Solar reflectance at normal incidence: front side
 0.1,                                          !- Solar reflectance at normal incidence: back side
 0.81,                                          !- Visible transmittance at normal incidence
 0.11,                                          !- Visible reflectance at normal incidence: front side
 0.12,                                          !- Visible reflectance at normal incidence: back side
 0,                                            !- IR transmittance at normal incidence
 0.84,                                           !- IR emissivity: front side
 0.2,                                           !- IR emissivity: back side
 0.9,                                            !- Conductivity [W/m-K]
 1;                                             !- Dirt Correction Factor for Solar and Visible Transmittance

! Gas: AIR_0.006
WindowMaterial:Gas,AIR_0.006_0.006_DblClear Air 6_6_6 ,                !- Material name 
 AIR,                                           !- Gas type (Air - Argon - Krypton - Xenon - SF6 - Custom)
 0.006;                                         !- Thickness [m]





! ------------ SCHEDULES ------------



Schedule:Constant,
  AllOn,                     !- Name
  Fraction,                  !- Schedule Type Limits Name
  1;                       !- Value




Schedule:Constant,
  AirSpeed 0,                     !- Name
  AnyNumber,                  !- Schedule Type Limits Name
  0;                       !- Value



Schedule:Day:Hourly, 7c6bffbc-e82c-4da9-8190-1674947a3aa3, AnyNumber,412.77,412.77167,412.77333,412.775,412.77667,412.77833,412.78,412.78167,412.78333,412.785,412.78667,412.78833,412.79,412.79167,412.79333,412.795,412.79667,412.79833,412.8,412.80167,412.80333,412.805,412.80667,412.80833;

Schedule:Day:Hourly, 0f365141-89d3-484b-ba72-a651f4291b94, AnyNumber,412.81,412.81125,412.8125,412.81375,412.815,412.81625,412.8175,412.81875,412.82,412.82125,412.8225,412.82375,412.825,412.82625,412.8275,412.82875,412.83,412.83125,412.8325,412.83375,412.835,412.83625,412.8375,412.83875;

Schedule:Day:Hourly, f9828c1c-3eba-4326-98d1-ff6d1382d44b, AnyNumber,412.84,412.84167,412.84333,412.845,412.84667,412.84833,412.85,412.85167,412.85333,412.855,412.85667,412.85833,412.86,412.86167,412.86333,412.865,412.86667,412.86833,412.87,412.87167,412.87333,412.875,412.87667,412.87833;

Schedule:Day:Hourly, a31cdd6c-cd25-4bf4-b43a-06bdce4155fa, AnyNumber,412.88,412.88125,412.8825,412.88375,412.885,412.88625,412.8875,412.88875,412.89,412.89125,412.8925,412.89375,412.895,412.89625,412.8975,412.89875,412.9,412.90125,412.9025,412.90375,412.905,412.90625,412.9075,412.90875;

Schedule:Day:Hourly, 3732cef3-8eb1-4cae-8212-0e9923264685, AnyNumber,412.91,412.91167,412.91333,412.915,412.91667,412.91833,412.92,412.92167,412.92333,412.925,412.92667,412.92833,412.93,412.93167,412.93333,412.935,412.93667,412.93833,412.94,412.94167,412.94333,412.945,412.94667,412.94833;

Schedule:Day:Hourly, 293593f5-398d-4d7f-9ef4-b255beab7b3d, AnyNumber,412.95,412.95125,412.9525,412.95375,412.955,412.95625,412.9575,412.95875,412.96,412.96125,412.9625,412.96375,412.965,412.96625,412.9675,412.96875,412.97,412.97125,412.9725,412.97375,412.975,412.97625,412.9775,412.97875;

Schedule:Day:Hourly, 260a6d0f-8e7f-4272-bb00-5c96d8f7bce8, AnyNumber,412.98,412.98125,412.9825,412.98375,412.985,412.98625,412.9875,412.98875,412.99,412.99125,412.9925,412.99375,412.995,412.99625,412.9975,412.99875,413,413.00125,413.0025,413.00375,413.005,413.00625,413.0075,413.00875;

Schedule:Day:Hourly, 04af4c18-8fef-4bff-a985-e92cdc6b789f, AnyNumber,413.01,413.01125,413.0125,413.01375,413.015,413.01625,413.0175,413.01875,413.02,413.02125,413.0225,413.02375,413.025,413.02625,413.0275,413.02875,413.03,413.03125,413.0325,413.03375,413.035,413.03625,413.0375,413.03875;

Schedule:Day:Hourly, a9e917bb-1d36-4db3-b841-eeb3a4d19f2a, AnyNumber,413.04,413.04167,413.04333,413.045,413.04667,413.04833,413.05,413.05167,413.05333,413.055,413.05667,413.05833,413.06,413.06167,413.06333,413.065,413.06667,413.06833,413.07,413.07167,413.07333,413.075,413.07667,413.07833;

Schedule:Day:Hourly, e2e991df-76ce-4d30-b381-4de91dd3cb62, AnyNumber,413.08,413.08125,413.0825,413.08375,413.085,413.08625,413.0875,413.08875,413.09,413.09125,413.0925,413.09375,413.095,413.09625,413.0975,413.09875,413.1,413.10125,413.1025,413.10375,413.105,413.10625,413.1075,413.10875;

Schedule:Day:Hourly, 0b407a9c-bbad-44cc-b56f-1afaa9685e84, AnyNumber,413.11,413.11125,413.1125,413.11375,413.115,413.11625,413.1175,413.11875,413.12,413.12125,413.1225,413.12375,413.125,413.12625,413.1275,413.12875,413.13,413.13125,413.1325,413.13375,413.135,413.13625,413.1375,413.13875;

Schedule:Day:Hourly, f95a2100-70f3-4e63-86fc-9de083866760, AnyNumber,413.14,413.14125,413.1425,413.14375,413.145,413.14625,413.1475,413.14875,413.15,413.15125,413.1525,413.15375,413.155,413.15625,413.1575,413.15875,413.16,413.16125,413.1625,413.16375,413.165,413.16625,413.1675,413.16875;

Schedule:Day:Hourly, 407b73f7-7333-4370-bcb3-b2793e48b51c, AnyNumber,413.17,413.17125,413.1725,413.17375,413.175,413.17625,413.1775,413.17875,413.18,413.18125,413.1825,413.18375,413.185,413.18625,413.1875,413.18875,413.19,413.19125,413.1925,413.19375,413.195,413.19625,413.1975,413.19875;

Schedule:Day:Hourly, 1f5f0d63-a33f-482e-b4eb-f0ca7dbc1246, AnyNumber,413.2,413.20125,413.2025,413.20375,413.205,413.20625,413.2075,413.20875,413.21,413.21125,413.2125,413.21375,413.215,413.21625,413.2175,413.21875,413.22,413.22125,413.2225,413.22375,413.225,413.22625,413.2275,413.22875;

Schedule:Day:Hourly, 0d524136-6941-469b-a47c-04fd5c825d0b, AnyNumber,413.23,413.23083,413.23167,413.2325,413.23333,413.23417,413.235,413.23583,413.23667,413.2375,413.23833,413.23917,413.24,413.24083,413.24167,413.2425,413.24333,413.24417,413.245,413.24583,413.24667,413.2475,413.24833,413.24917;

Schedule:Day:Hourly, 4c465826-2e97-49ad-9d9b-0ad541e66e51, AnyNumber,413.25,413.25125,413.2525,413.25375,413.255,413.25625,413.2575,413.25875,413.26,413.26125,413.2625,413.26375,413.265,413.26625,413.2675,413.26875,413.27,413.27125,413.2725,413.27375,413.275,413.27625,413.2775,413.27875;

Schedule:Day:Hourly, 8b51e8e7-6c79-492d-b68d-4d7112bc5b1d, AnyNumber,413.28,413.28125,413.2825,413.28375,413.285,413.28625,413.2875,413.28875,413.29,413.29125,413.2925,413.29375,413.295,413.29625,413.2975,413.29875,413.3,413.30125,413.3025,413.30375,413.305,413.30625,413.3075,413.30875;

Schedule:Day:Hourly, af443d9b-fbd9-4c1d-891f-3c27239cb22d, AnyNumber,413.31,413.31083,413.31167,413.3125,413.31333,413.31417,413.315,413.31583,413.31667,413.3175,413.31833,413.31917,413.32,413.32083,413.32167,413.3225,413.32333,413.32417,413.325,413.32583,413.32667,413.3275,413.32833,413.32917;

Schedule:Day:Hourly, ba2e1957-40f3-4bd7-aa61-ded91b2b3b4c, AnyNumber,413.33,413.33125,413.3325,413.33375,413.335,413.33625,413.3375,413.33875,413.34,413.34125,413.3425,413.34375,413.345,413.34625,413.3475,413.34875,413.35,413.35125,413.3525,413.35375,413.355,413.35625,413.3575,413.35875;

Schedule:Day:Hourly, abd42685-96f8-4b5a-9908-46180f304be4, AnyNumber,413.36,413.36083,413.36167,413.3625,413.36333,413.36417,413.365,413.36583,413.36667,413.3675,413.36833,413.36917,413.37,413.37083,413.37167,413.3725,413.37333,413.37417,413.375,413.37583,413.37667,413.3775,413.37833,413.37917;

Schedule:Day:Hourly, 7fc38247-a512-4018-9b2d-587d74f22add, AnyNumber,413.38,413.38125,413.3825,413.38375,413.385,413.38625,413.3875,413.38875,413.39,413.39125,413.3925,413.39375,413.395,413.39625,413.3975,413.39875,413.4,413.40125,413.4025,413.40375,413.405,413.40625,413.4075,413.40875;

Schedule:Day:Hourly, ed490c82-e393-4e19-beb5-fd3baa8e016b, AnyNumber,413.41,413.41083,413.41167,413.4125,413.41333,413.41417,413.415,413.41583,413.41667,413.4175,413.41833,413.41917,413.42,413.42083,413.42167,413.4225,413.42333,413.42417,413.425,413.42583,413.42667,413.4275,413.42833,413.42917;

Schedule:Day:Hourly, dfe78474-602b-4eda-a804-56a830ab3cd1, AnyNumber,413.43,413.43083,413.43167,413.4325,413.43333,413.43417,413.435,413.43583,413.43667,413.4375,413.43833,413.43917,413.44,413.44083,413.44167,413.4425,413.44333,413.44417,413.445,413.44583,413.44667,413.4475,413.44833,413.44917;

Schedule:Day:Hourly, e1f04d13-0e4c-4943-92de-8c89dc4b4baa, AnyNumber,413.45,413.45083,413.45167,413.4525,413.45333,413.45417,413.455,413.45583,413.45667,413.4575,413.45833,413.45917,413.46,413.46083,413.46167,413.4625,413.46333,413.46417,413.465,413.46583,413.46667,413.4675,413.46833,413.46917;

Schedule:Day:Hourly, c840b50e-ce7b-457b-b18f-2cf0374cb9f8, AnyNumber,413.47,413.47083,413.47167,413.4725,413.47333,413.47417,413.475,413.47583,413.47667,413.4775,413.47833,413.47917,413.48,413.48083,413.48167,413.4825,413.48333,413.48417,413.485,413.48583,413.48667,413.4875,413.48833,413.48917;

Schedule:Day:Hourly, 19cb8ee7-eba2-4bcf-bc56-c8cd3bc058c9, AnyNumber,413.49,413.49083,413.49167,413.4925,413.49333,413.49417,413.495,413.49583,413.49667,413.4975,413.49833,413.49917,413.5,413.50083,413.50167,413.5025,413.50333,413.50417,413.505,413.50583,413.50667,413.5075,413.50833,413.50917;

Schedule:Day:Hourly, 0b7ba7a8-1d97-4225-b269-1b0d5118eccd, AnyNumber,413.51,413.51042,413.51083,413.51125,413.51167,413.51208,413.5125,413.51292,413.51333,413.51375,413.51417,413.51458,413.515,413.51542,413.51583,413.51625,413.51667,413.51708,413.5175,413.51792,413.51833,413.51875,413.51917,413.51958;

Schedule:Day:Hourly, 134be9b1-4348-4aa3-a5bf-3fe2f7d7b73a, AnyNumber,413.52,413.52083,413.52167,413.5225,413.52333,413.52417,413.525,413.52583,413.52667,413.5275,413.52833,413.52917,413.53,413.53083,413.53167,413.5325,413.53333,413.53417,413.535,413.53583,413.53667,413.5375,413.53833,413.53917;

Schedule:Day:Hourly, d29112f7-3ea6-4cfa-b65e-06233385d2be, AnyNumber,413.54,413.54083,413.54167,413.5425,413.54333,413.54417,413.545,413.54583,413.54667,413.5475,413.54833,413.54917,413.55,413.55083,413.55167,413.5525,413.55333,413.55417,413.555,413.55583,413.55667,413.5575,413.55833,413.55917;

Schedule:Day:Hourly, 889e55d1-b35c-423f-bad9-3f58878c4492, AnyNumber,413.56,413.56042,413.56083,413.56125,413.56167,413.56208,413.5625,413.56292,413.56333,413.56375,413.56417,413.56458,413.565,413.56542,413.56583,413.56625,413.56667,413.56708,413.5675,413.56792,413.56833,413.56875,413.56917,413.56958;

Schedule:Day:Hourly, 554bd67f-2ca0-4492-93c5-5283b691e914, AnyNumber,413.57,413.57042,413.57083,413.57125,413.57167,413.57208,413.5725,413.57292,413.57333,413.57375,413.57417,413.57458,413.575,413.57542,413.57583,413.57625,413.57667,413.57708,413.5775,413.57792,413.57833,413.57875,413.57917,413.57958;
