! ----  This file was generated with Climate Studio 2.0.8783.14989

Version,23.1;

Site:GroundTemperature:BuildingSurface,18,18,18,18,18,18,18,18,18,18,18,18;

Site:GroundReflectance,0.2,0.2,0.2,0.2,0.2,0.2,0.2,0.2,0.2,0.2,0.2,0.2;

Site:GroundReflectance:SnowModifier,
  1.0,                     !- Ground Reflected Solar Modifier
  1.0;                     !- Daylighting Ground Reflected Solar Modifier


Site:WeatherStation, 
10, !- Wind Sensor Height Above Ground {m} 
0.22, !- Wind Speed Profile Exponent {} 
370, !- Wind Speed Profile Boundary Layer Thickness {m} 
1.5; !- Air Temperature Sensor Height Above Ground {m}


ZoneAirContaminantBalance,
  Yes,                       !- Carbon Dioxide Concentration
  GlobalCO2,      !- Outdoor Carbon Dioxide Schedule Name
  No,                       !- Generic Contaminant Concentration
  Off; !- Outdoor Generic Contaminant Schedule Name


!-   ===========  ALL OBJECTS IN CLASS: RUNPERIOD ===========

RunPeriod,
  Climate Studio,                 !- Name
  1,                       !- Begin Month
  1,                       !- Begin Day of Month
  , !- Begin Year
  12,                      !- End Month
  31,                      !- End Day of Month
  , !- End Year
  Sunday,          !- Day of Week for Start Day
  No,                     !- Use Weather File Holidays and Special Days
  No,                     !- Use Weather File Daylight Saving Period
  No,                      !- Apply Weekend Holiday Rule
  Yes,                     !- Use Weather File Rain Indicators
  Yes,                     !- Use Weather File Snow Indicators
  No;                      !- Treat Weather as Actual

RunPeriodControl:DaylightSavingTime,2nd Sunday in March, 1st Sunday in November; !2007


!-   ===========  ALL OBJECTS IN CLASS: SIMULATIONCONTROL ===========

SimulationControl,
Yes, !- Do Zone Sizing Calculation
Yes, !- Do System Sizing Calculation
Yes, !- Do Plant Sizing Calculation
No, !- Run Simulation for Sizing Periods
Yes, !- Run Simulation for Weather File Run Periods
No, !- Do HVAC Sizing Simulation for Sizing Periods
2; !- Maximum Number of HVAC Sizing Simulation Passes


!-   ===========  ALL OBJECTS IN CLASS: CONVERGENCELIMITS ===========

ConvergenceLimits,
0, !- Minimum System Timestep (0 = same as zone timestep)
50, !- Maximum HVAC Iterations
3, !- Minimum Plant Iterations
9; !- Maximum Plant Iterations


!-   ===========  ALL OBJECTS IN CLASS: SCHEDULETYPELIMITS ===========

ScheduleTypeLimits,
  Any Number;              !- Name

ScheduleTypeLimits,
  Fraction,                !- Name
  0.0,                     !- Lower Limit Value {A3}
  1.0,                     !- Upper Limit Value {A3}
  CONTINUOUS;              !- Numeric Type

ScheduleTypeLimits,
  Temperature,             !- Name
  -60,                     !- Lower Limit Value
  200,                     !- Upper Limit Value
  CONTINUOUS;              !- Numeric Type

ScheduleTypeLimits,
  AnyNumber,               !- Name
  -1E11,                   !- Lower Limit Value
  1E11,                    !- Upper Limit Value
  CONTINUOUS;              !- Numeric Type

ScheduleTypeLimits,
  Control Type,            !- Name
  0,                       !- Lower Limit Value
  4,                       !- Upper Limit Value
  DISCRETE;                !- Numeric Type

ScheduleTypeLimits,
  On/Off,                  !- Name
  0,                       !- Lower Limit Value
  1,                       !- Upper Limit Value
  DISCRETE;                !- Numeric Type

Schedule:Constant,
  On,                      !- Name
  On/Off,                  !- Schedule Type Limits Name
  1;                       !- Value

Schedule:Constant,
  Off,                     !- Name
  On/Off,                  !- Schedule Type Limits Name
  0;                       !- Value


! -------------------------ERL SENSORS--------------------------

EnergyManagementSystem:Sensor,                                             
  OutdoorTemp, !- Name                                         
  Environment, !- Output:Variable Index Key Name               
  Site Outdoor Air Drybulb Temperature; !- Output:Variable Name

EnergyManagementSystem:Sensor,                                             
  OutdoorRelHumid, !- Name                                         
  Environment, !- Output:Variable Index Key Name               
  Site Outdoor Air Relative Humidity; !- Output:Variable Name

Output:EnergyManagementSystem,
  Verbose,                 !- Actuator Availability Dictionary Reporting
  Verbose,                 !- Internal Variable Availability Dictionary Reporting
  Verbose;                 !- EMS Runtime Language Debug Output Level

! Output:SQLite, Simple;



SizingPeriod:WeatherFileConditionType ,
    Extreme Summer Weather Period for Design, !- Name
    SummerExtreme , !- Period Selection
    SummerDesignDay , !- Day Type
    No, !- Use Weather File Daylight Saving Period
    No; !- Use Weather File Rain and Snow Indicators

SizingPeriod:WeatherFileConditionType ,
    Extreme Winter Weather Period for Design, !- Name
    WinterExtreme , !- Period Selection
    WinterDesignDay , !- Day Type
    No, !- Use Weather File Daylight Saving Period
    No; !- Use Weather File Rain and Snow Indicators

Sizing:Parameters,
    1.5,                     !- Heating Sizing Factor
    1.5;                     !- Cooling Sizing Factor




GlobalGeometryRules,
  LowerLeftCorner,         !- Starting Vertex Position
  CounterClockWise,        !- Vertex Entry Direction
  Relative;                !- Coordinate System

ShadowCalculation,
    PixelCounting,           !- Shading Calculation Method
    Periodic,                !- Shading Calculation Update Frequency Method
    20,                      !- Shading Calculation Update Frequency
    15000,                   !- Maximum Figures in Shadow Overlap Calculations
    ,                        !- Polygon Clipping Algorithm
    512,                     !- Pixel Counting Resolution
    SimpleSkyDiffuseModeling,  !- Sky Diffuse Modeling Algorithm
    Yes,                     !- Output External Shading Calculation Results
    No,                      !- Disable Self-Shading Within Shading Zone Groups
    No;                      !- Disable Self-Shading From Shading Zone Groups to Other Zones

Building,
    Building,                !- Name
    0,        !- North Axis {deg}
    Suburbs,       !- Terrain
    0.04,                    !- Loads Convergence Tolerance Value
    0.25,                     !- Temperature Convergence Tolerance Value {deltaC}
    FullExterior,            !- Solar Distribution
    25,                      !- Maximum Number of Warmup Days
    6;                       !- Minimum Number of Warmup Days



!-   ===========  ALL OBJECTS IN CLASS: HEATBALANCEALGORITHM ===========

HeatBalanceAlgorithm,
    ConductionTransferFunction,  !- Algorithm
    200,                     !- Surface Temperature Upper Limit {C}
    0.1,                     !- Minimum Surface Convection Heat Transfer Coefficient Value {W/m2-K}
    1000;                    !- Maximum Surface Convection Heat Transfer Coefficient Value {W/m2-K}

Timestep,6;

SurfaceConvectionAlgorithm:Inside,TARP;

SurfaceConvectionAlgorithm:Outside,DOE-2;

! ------------ CONSTRUCTIONS 

! defaultConstruction Type: Facade
Construction, defaultConstruction,
defaultMat_0.25_defaultConstruction;

Construction, defaultConstruction_FLIPPED,
defaultMat_0.25_defaultConstruction;



! Materials
!- Material: defaultMat Type: Concrete
Material, defaultMat_0.25_defaultConstruction ,                !- Material name 
 Rough,                                         !- Roughness
 0.25,   !- @defaultConstruction:defaultMat-Thickness@ [m]
 2.3,   !- @defaultConstruction:defaultMat-Conductivity@ [W/m-K]
 2400,   !- @defaultConstruction:defaultMat-Density@ [kg/m3]
 840,   !- @defaultConstruction:defaultMat-SpecificHeat@ [J/kg-K]
 0.9,   !- @defaultConstruction:defaultMat-ThermalEmittance@
 0.7,   !- @defaultConstruction:defaultMat-SolarAbsorptance@
 0.7;   !- @defaultConstruction:defaultMat-VisibleAbsorptance@



! UVal_0.2_Light Type: Facade
Construction, UVal_0.2_Light,
Mineral Wool_0.195_UVal_0.2_Light,
Gypsum Board_0.02_UVal_0.2_Light;

Construction, UVal_0.2_Light_FLIPPED,
Gypsum Board_0.02_UVal_0.2_Light,
Mineral Wool_0.195_UVal_0.2_Light;



! Materials
!- Material: Mineral Wool Type: Insulation
Material, Mineral Wool_0.195_UVal_0.2_Light ,                !- Material name 
 Rough,                                         !- Roughness
 0.195,   !- @UVal_0.2_Light:Mineral Wool-Thickness@ [m]
 0.041,   !- @UVal_0.2_Light:Mineral Wool-Conductivity@ [W/m-K]
 155,   !- @UVal_0.2_Light:Mineral Wool-Density@ [kg/m3]
 1130,   !- @UVal_0.2_Light:Mineral Wool-SpecificHeat@ [J/kg-K]
 0.9,   !- @UVal_0.2_Light:Mineral Wool-ThermalEmittance@
 0.7,   !- @UVal_0.2_Light:Mineral Wool-SolarAbsorptance@
 0.7;   !- @UVal_0.2_Light:Mineral Wool-VisibleAbsorptance@

!- Material: Gypsum Board Type: Boards
Material, Gypsum Board_0.02_UVal_0.2_Light ,                !- Material name 
 MediumSmooth,                                         !- Roughness
 0.02,   !- @UVal_0.2_Light:Gypsum Board-Thickness@ [m]
 0.16,   !- @UVal_0.2_Light:Gypsum Board-Conductivity@ [W/m-K]
 800,   !- @UVal_0.2_Light:Gypsum Board-Density@ [kg/m3]
 1090,   !- @UVal_0.2_Light:Gypsum Board-SpecificHeat@ [J/kg-K]
 0.9,   !- @UVal_0.2_Light:Gypsum Board-ThermalEmittance@
 0.7,   !- @UVal_0.2_Light:Gypsum Board-SolarAbsorptance@
 0.7;   !- @UVal_0.2_Light:Gypsum Board-VisibleAbsorptance@



! UVal_0.4_Mass Type: Facade
Construction, UVal_0.4_Mass,
Mineral Wool_0.0915_UVal_0.4_Mass,
General Concrete_0.2_UVal_0.4_Mass;

Construction, UVal_0.4_Mass_FLIPPED,
General Concrete_0.2_UVal_0.4_Mass,
Mineral Wool_0.0915_UVal_0.4_Mass;



! Materials
!- Material: Mineral Wool Type: Insulation
Material, Mineral Wool_0.0915_UVal_0.4_Mass ,                !- Material name 
 Rough,                                         !- Roughness
 0.0915,   !- @UVal_0.4_Mass:Mineral Wool-Thickness@ [m]
 0.041,   !- @UVal_0.4_Mass:Mineral Wool-Conductivity@ [W/m-K]
 155,   !- @UVal_0.4_Mass:Mineral Wool-Density@ [kg/m3]
 1130,   !- @UVal_0.4_Mass:Mineral Wool-SpecificHeat@ [J/kg-K]
 0.9,   !- @UVal_0.4_Mass:Mineral Wool-ThermalEmittance@
 0.7,   !- @UVal_0.4_Mass:Mineral Wool-SolarAbsorptance@
 0.7;   !- @UVal_0.4_Mass:Mineral Wool-VisibleAbsorptance@

!- Material: General Concrete Type: Concrete
Material, General Concrete_0.2_UVal_0.4_Mass ,                !- Material name 
 Rough,                                         !- Roughness
 0.2,   !- @UVal_0.4_Mass:General Concrete-Thickness@ [m]
 2,   !- @UVal_0.4_Mass:General Concrete-Conductivity@ [W/m-K]
 2400,   !- @UVal_0.4_Mass:General Concrete-Density@ [kg/m3]
 950,   !- @UVal_0.4_Mass:General Concrete-SpecificHeat@ [J/kg-K]
 0.9,   !- @UVal_0.4_Mass:General Concrete-ThermalEmittance@
 0.7,   !- @UVal_0.4_Mass:General Concrete-SolarAbsorptance@
 0.7;   !- @UVal_0.4_Mass:General Concrete-VisibleAbsorptance@



! UVal_0.2_Mass Type: Facade
Construction, UVal_0.2_Mass,
Mineral Wool_0.194_UVal_0.2_Mass,
General Concrete_0.2_UVal_0.2_Mass;

Construction, UVal_0.2_Mass_FLIPPED,
General Concrete_0.2_UVal_0.2_Mass,
Mineral Wool_0.194_UVal_0.2_Mass;



! Materials
!- Material: Mineral Wool Type: Insulation
Material, Mineral Wool_0.194_UVal_0.2_Mass ,                !- Material name 
 Rough,                                         !- Roughness
 0.194,   !- @UVal_0.2_Mass:Mineral Wool-Thickness@ [m]
 0.041,   !- @UVal_0.2_Mass:Mineral Wool-Conductivity@ [W/m-K]
 155,   !- @UVal_0.2_Mass:Mineral Wool-Density@ [kg/m3]
 1130,   !- @UVal_0.2_Mass:Mineral Wool-SpecificHeat@ [J/kg-K]
 0.9,   !- @UVal_0.2_Mass:Mineral Wool-ThermalEmittance@
 0.7,   !- @UVal_0.2_Mass:Mineral Wool-SolarAbsorptance@
 0.7;   !- @UVal_0.2_Mass:Mineral Wool-VisibleAbsorptance@

!- Material: General Concrete Type: Concrete
Material, General Concrete_0.2_UVal_0.2_Mass ,                !- Material name 
 Rough,                                         !- Roughness
 0.2,   !- @UVal_0.2_Mass:General Concrete-Thickness@ [m]
 2,   !- @UVal_0.2_Mass:General Concrete-Conductivity@ [W/m-K]
 2400,   !- @UVal_0.2_Mass:General Concrete-Density@ [kg/m3]
 950,   !- @UVal_0.2_Mass:General Concrete-SpecificHeat@ [J/kg-K]
 0.9,   !- @UVal_0.2_Mass:General Concrete-ThermalEmittance@
 0.7,   !- @UVal_0.2_Mass:General Concrete-SolarAbsorptance@
 0.7;   !- @UVal_0.2_Mass:General Concrete-VisibleAbsorptance@




! ------------ GLAZING  

! defaultGlazing Type: Single
Construction, defaultGlazing,
defaultGlazingMat_0.006_defaultGlazing;

Construction, defaultGlazing_FLIPPED,
defaultGlazingMat_0.006_defaultGlazing;



! Materials
WindowMaterial:Glazing,defaultGlazingMat_0.006_defaultGlazing,                         !- Generic CLEAR 3MM
 SpectralAverage,                               !- Optical data type [SpectralAverage or Spectral]
 ,                                              !- Name of spectral data set when Optical Data Type = Spectral
 0.006,                                          !- Thickness [m]
 0.775,                                          !- Solar transmittance at normal incidence
 0.071,                                          !- Solar reflectance at normal incidence: front side
 0.071,                                          !- Solar reflectance at normal incidence: back side
 0.881,                                          !- Visible transmittance at normal incidence
 0.08,                                          !- Visible reflectance at normal incidence: front side
 0.08,                                          !- Visible reflectance at normal incidence: back side
 0,                                            !- IR transmittance at normal incidence
 0.84,                                           !- IR emissivity: front side
 0.84,                                           !- IR emissivity: back side
 0.9,                                            !- Conductivity [W/m-K]
 1;                                             !- Dirt Correction Factor for Solar and Visible Transmittance



! Optigray Type: Single
Construction, Optigray,
Optigray  6mm_0.0057_Optigray;

Construction, Optigray_FLIPPED,
Optigray  6mm_0.0057_Optigray;



! Materials
WindowMaterial:Glazing,Optigray  6mm_0.0057_Optigray,                         !- Generic CLEAR 3MM
 Spectral,                               !- Optical data type [SpectralAverage or Spectral]
 Optigray  6mm_0.0057_OptigrayOptical,                                              !- Name of spectral data set when Optical Data Type = Spectral
 0.0057,                                          !- Thickness [m]
 0.512,                                          !- Solar transmittance at normal incidence
 0.0547,                                          !- Solar reflectance at normal incidence: front side
 0.0547,                                          !- Solar reflectance at normal incidence: back side
 0.6289,                                          !- Visible transmittance at normal incidence
 0.0616,                                          !- Visible reflectance at normal incidence: front side
 0.0616,                                          !- Visible reflectance at normal incidence: back side
 0,                                            !- IR transmittance at normal incidence
 0.84,                                           !- IR emissivity: front side
 0.84,                                           !- IR emissivity: back side
 1.0003,                                            !- Conductivity [W/m-K]
 1;                                             !- Dirt Correction Factor for Solar and Visible Transmittance

MaterialProperty:GlazingSpectralData, Optigray  6mm_0.0057_OptigrayOptical,  !- Name 
0.3, 0, 0.0472, 0.0472,
0.305, 0.0002, 0.047, 0.047,
0.31, 0, 0.0468, 0.0468,
0.315, 0, 0.0467, 0.0467,
0.32, 0.0002, 0.0466, 0.0466,
0.325, 0.0002, 0.0464, 0.0464,
0.33, 0.0027, 0.0463, 0.0463,
0.335, 0.0151, 0.0462, 0.0462,
0.34, 0.0535, 0.0462, 0.0462,
0.345, 0.1283, 0.0468, 0.0468,
0.35, 0.2329, 0.0486, 0.0486,
0.355, 0.345, 0.0517, 0.0517,
0.36, 0.4446, 0.0556, 0.0556,
0.365, 0.5189, 0.059, 0.059,
0.37, 0.5591, 0.0611, 0.0611,
0.375, 0.5537, 0.0606, 0.0606,
0.38, 0.5364, 0.0596, 0.0596,
0.385, 0.5711, 0.0614, 0.0614,
0.39, 0.6234, 0.0643, 0.0643,
0.395, 0.6566, 0.0663, 0.0663,
0.4, 0.6702, 0.067, 0.067,
0.405, 0.6697, 0.0669, 0.0669,
0.41, 0.6619, 0.0663, 0.0663,
0.415, 0.6523, 0.0655, 0.0655,
0.42, 0.645, 0.0649, 0.0649,
0.425, 0.6399, 0.0645, 0.0645,
0.43, 0.6342, 0.064, 0.064,
0.435, 0.6274, 0.0635, 0.0635,
0.44, 0.6227, 0.0631, 0.0631,
0.445, 0.6228, 0.063, 0.063,
0.45, 0.6258, 0.0631, 0.0631,
0.455, 0.6291, 0.0632, 0.0632,
0.46, 0.6311, 0.0632, 0.0632,
0.465, 0.631, 0.0631, 0.0631,
0.47, 0.63, 0.063, 0.063,
0.475, 0.6279, 0.0627, 0.0627,
0.48, 0.6258, 0.0625, 0.0625,
0.485, 0.624, 0.0623, 0.0623,
0.49, 0.6222, 0.0622, 0.0622,
0.495, 0.6217, 0.062, 0.062,
0.5, 0.6218, 0.062, 0.062,
0.505, 0.6211, 0.0618, 0.0618,
0.51, 0.62, 0.0617, 0.0617,
0.515, 0.6196, 0.0616, 0.0616,
0.52, 0.6195, 0.0615, 0.0615,
0.525, 0.6201, 0.0615, 0.0615,
0.53, 0.6223, 0.0615, 0.0615,
0.535, 0.6272, 0.0618, 0.0618,
0.54, 0.635, 0.0622, 0.0622,
0.545, 0.6446, 0.0627, 0.0627,
0.55, 0.6548, 0.0632, 0.0632,
0.555, 0.6622, 0.0636, 0.0636,
0.56, 0.6647, 0.0637, 0.0637,
0.565, 0.662, 0.0635, 0.0635,
0.57, 0.6548, 0.063, 0.063,
0.575, 0.6437, 0.0622, 0.0622,
0.58, 0.6302, 0.0614, 0.0614,
0.585, 0.617, 0.0605, 0.0605,
0.59, 0.6078, 0.06, 0.06,
0.595, 0.6047, 0.0597, 0.0597,
0.6, 0.6055, 0.0597, 0.0597,
0.605, 0.6065, 0.0597, 0.0597,
0.61, 0.6064, 0.0597, 0.0597,
0.615, 0.6051, 0.0596, 0.0596,
0.62, 0.6027, 0.0594, 0.0594,
0.625, 0.5989, 0.0591, 0.0591,
0.63, 0.5934, 0.0588, 0.0588,
0.635, 0.5872, 0.0584, 0.0584,
0.64, 0.5814, 0.058, 0.058,
0.645, 0.5765, 0.0577, 0.0577,
0.65, 0.5734, 0.0575, 0.0575,
0.655, 0.5723, 0.0574, 0.0574,
0.66, 0.5728, 0.0574, 0.0574,
0.665, 0.5755, 0.0575, 0.0575,
0.67, 0.5794, 0.0577, 0.0577,
0.675, 0.5846, 0.0579, 0.0579,
0.68, 0.5903, 0.0582, 0.0582,
0.685, 0.5957, 0.0585, 0.0585,
0.69, 0.5995, 0.0586, 0.0586,
0.695, 0.6014, 0.0587, 0.0587,
0.7, 0.6004, 0.0586, 0.0586,
0.705, 0.5978, 0.0584, 0.0584,
0.71, 0.5938, 0.0582, 0.0582,
0.715, 0.5883, 0.0579, 0.0579,
0.72, 0.5819, 0.0575, 0.0575,
0.725, 0.5752, 0.0571, 0.0571,
0.73, 0.5682, 0.0567, 0.0567,
0.735, 0.5604, 0.0563, 0.0563,
0.74, 0.5524, 0.0558, 0.0558,
0.745, 0.5448, 0.0554, 0.0554,
0.75, 0.5375, 0.055, 0.055,
0.755, 0.5293, 0.0546, 0.0546,
0.76, 0.5214, 0.0542, 0.0542,
0.765, 0.514, 0.0538, 0.0538,
0.77, 0.5071, 0.0535, 0.0535,
0.775, 0.4998, 0.0531, 0.0531,
0.78, 0.4927, 0.0528, 0.0528,
0.785, 0.486, 0.0525, 0.0525,
0.79, 0.4794, 0.0522, 0.0522,
0.795, 0.4729, 0.0519, 0.0519,
0.8, 0.4671, 0.0516, 0.0516,
0.805, 0.4612, 0.0513, 0.0513,
0.81, 0.4548, 0.051, 0.051,
0.815, 0.4493, 0.0508, 0.0508,
0.82, 0.4442, 0.0506, 0.0506,
0.825, 0.4382, 0.0503, 0.0503,
0.83, 0.4327, 0.0501, 0.0501,
0.835, 0.4285, 0.0499, 0.0499,
0.84, 0.424, 0.0497, 0.0497,
0.845, 0.4195, 0.0495, 0.0495,
0.85, 0.415, 0.0493, 0.0493,
0.855, 0.4105, 0.0491, 0.0491,
0.86, 0.4049, 0.0489, 0.0489,
0.865, 0.4014, 0.0488, 0.0488,
0.87, 0.3979, 0.0486, 0.0486,
0.875, 0.3946, 0.0485, 0.0485,
0.88, 0.3915, 0.0484, 0.0484,
0.885, 0.3884, 0.0483, 0.0483,
0.89, 0.3855, 0.0481, 0.0481,
0.895, 0.3828, 0.048, 0.048,
0.9, 0.3802, 0.0479, 0.0479,
0.905, 0.3776, 0.0478, 0.0478,
0.91, 0.3752, 0.0477, 0.0477,
0.915, 0.3729, 0.0476, 0.0476,
0.92, 0.3706, 0.0476, 0.0476,
0.925, 0.3685, 0.0475, 0.0475,
0.93, 0.3665, 0.0474, 0.0474,
0.935, 0.3646, 0.0473, 0.0473,
0.94, 0.3627, 0.0472, 0.0472,
0.945, 0.3611, 0.0472, 0.0472,
0.95, 0.3594, 0.0471, 0.0471,
0.955, 0.3579, 0.047, 0.047,
0.96, 0.3564, 0.047, 0.047,
0.965, 0.3551, 0.0469, 0.0469,
0.97, 0.3538, 0.0469, 0.0469,
0.975, 0.3526, 0.0468, 0.0468,
0.98, 0.3514, 0.0468, 0.0468,
0.985, 0.3503, 0.0467, 0.0467,
0.99, 0.3494, 0.0467, 0.0467,
0.995, 0.3483, 0.0466, 0.0466,
1, 0.3475, 0.0466, 0.0466,
1.005, 0.3467, 0.0466, 0.0466,
1.01, 0.3458, 0.0465, 0.0465,
1.015, 0.3452, 0.0465, 0.0465,
1.02, 0.3447, 0.0464, 0.0464,
1.025, 0.344, 0.0464, 0.0464,
1.03, 0.3434, 0.0464, 0.0464,
1.035, 0.3428, 0.0463, 0.0463,
1.04, 0.3426, 0.0463, 0.0463,
1.045, 0.3419, 0.0463, 0.0463,
1.05, 0.3415, 0.0463, 0.0463,
1.055, 0.3412, 0.0462, 0.0462,
1.06, 0.3409, 0.0462, 0.0462,
1.065, 0.3405, 0.0462, 0.0462,
1.07, 0.3403, 0.0462, 0.0462,
1.075, 0.3401, 0.0462, 0.0462,
1.08, 0.3399, 0.0462, 0.0462,
1.085, 0.3397, 0.0461, 0.0461,
1.09, 0.3396, 0.0461, 0.0461,
1.095, 0.3395, 0.0461, 0.0461,
1.1, 0.3394, 0.0461, 0.0461,
1.105, 0.3394, 0.0461, 0.0461,
1.11, 0.3396, 0.0461, 0.0461,
1.115, 0.3395, 0.0461, 0.0461,
1.12, 0.3396, 0.0461, 0.0461,
1.125, 0.3395, 0.0461, 0.0461,
1.13, 0.3394, 0.046, 0.046,
1.135, 0.3396, 0.046, 0.046,
1.14, 0.3398, 0.046, 0.046,
1.145, 0.3401, 0.046, 0.046,
1.15, 0.3404, 0.046, 0.046,
1.155, 0.3407, 0.046, 0.046,
1.16, 0.3409, 0.046, 0.046,
1.165, 0.3414, 0.046, 0.046,
1.17, 0.3417, 0.046, 0.046,
1.175, 0.3421, 0.046, 0.046,
1.18, 0.3426, 0.046, 0.046,
1.185, 0.3432, 0.0461, 0.0461,
1.19, 0.3439, 0.0461, 0.0461,
1.195, 0.3445, 0.0461, 0.0461,
1.2, 0.3452, 0.0461, 0.0461,
1.205, 0.3457, 0.0461, 0.0461,
1.21, 0.3466, 0.0461, 0.0461,
1.215, 0.3476, 0.0461, 0.0461,
1.22, 0.3485, 0.0461, 0.0461,
1.225, 0.3496, 0.0462, 0.0462,
1.23, 0.3507, 0.0462, 0.0462,
1.235, 0.3518, 0.0462, 0.0462,
1.24, 0.3531, 0.0462, 0.0462,
1.245, 0.3543, 0.0463, 0.0463,
1.25, 0.3557, 0.0463, 0.0463,
1.255, 0.3571, 0.0463, 0.0463,
1.26, 0.3586, 0.0464, 0.0464,
1.265, 0.3602, 0.0464, 0.0464,
1.27, 0.3618, 0.0465, 0.0465,
1.275, 0.3635, 0.0465, 0.0465,
1.28, 0.3654, 0.0466, 0.0466,
1.285, 0.3673, 0.0466, 0.0466,
1.29, 0.3692, 0.0467, 0.0467,
1.295, 0.3711, 0.0467, 0.0467,
1.3, 0.3732, 0.0468, 0.0468,
1.305, 0.3755, 0.0469, 0.0469,
1.31, 0.3777, 0.0469, 0.0469,
1.315, 0.38, 0.047, 0.047,
1.32, 0.3822, 0.0471, 0.0471,
1.325, 0.3846, 0.0471, 0.0471,
1.33, 0.3871, 0.0472, 0.0472,
1.335, 0.3895, 0.0473, 0.0473,
1.34, 0.392, 0.0474, 0.0474,
1.345, 0.3946, 0.0475, 0.0475,
1.35, 0.3972, 0.0475, 0.0475,
1.355, 0.3997, 0.0476, 0.0476,
1.36, 0.4024, 0.0477, 0.0477,
1.365, 0.4053, 0.0478, 0.0478,
1.37, 0.4079, 0.0479, 0.0479,
1.375, 0.4106, 0.048, 0.048,
1.38, 0.4133, 0.0481, 0.0481,
1.385, 0.416, 0.0482, 0.0482,
1.39, 0.4183, 0.0482, 0.0482,
1.395, 0.4205, 0.0483, 0.0483,
1.4, 0.4231, 0.0484, 0.0484,
1.405, 0.4256, 0.0485, 0.0485,
1.41, 0.4282, 0.0486, 0.0486,
1.415, 0.4312, 0.0487, 0.0487,
1.42, 0.4342, 0.0488, 0.0488,
1.425, 0.4373, 0.0489, 0.0489,
1.43, 0.4405, 0.049, 0.049,
1.435, 0.4438, 0.0491, 0.0491,
1.44, 0.4472, 0.0493, 0.0493,
1.445, 0.4505, 0.0494, 0.0494,
1.45, 0.4537, 0.0495, 0.0495,
1.455, 0.4569, 0.0496, 0.0496,
1.46, 0.4602, 0.0497, 0.0497,
1.465, 0.4635, 0.0499, 0.0499,
1.47, 0.4668, 0.05, 0.05,
1.475, 0.47, 0.0501, 0.0501,
1.48, 0.4733, 0.0502, 0.0502,
1.485, 0.4765, 0.0504, 0.0504,
1.49, 0.4797, 0.0505, 0.0505,
1.495, 0.483, 0.0506, 0.0506,
1.5, 0.4863, 0.0508, 0.0508,
1.505, 0.4893, 0.0509, 0.0509,
1.51, 0.4926, 0.051, 0.051,
1.515, 0.4957, 0.0511, 0.0511,
1.52, 0.4987, 0.0513, 0.0513,
1.525, 0.5019, 0.0514, 0.0514,
1.53, 0.505, 0.0515, 0.0515,
1.535, 0.5079, 0.0516, 0.0516,
1.54, 0.5107, 0.0518, 0.0518,
1.545, 0.5137, 0.0519, 0.0519,
1.55, 0.5166, 0.052, 0.052,
1.555, 0.5192, 0.0521, 0.0521,
1.56, 0.5221, 0.0522, 0.0522,
1.565, 0.5248, 0.0524, 0.0524,
1.57, 0.5272, 0.0525, 0.0525,
1.575, 0.5298, 0.0526, 0.0526,
1.58, 0.5323, 0.0527, 0.0527,
1.585, 0.5346, 0.0528, 0.0528,
1.59, 0.537, 0.0529, 0.0529,
1.595, 0.5392, 0.053, 0.053,
1.6, 0.5413, 0.0531, 0.0531,
1.605, 0.5434, 0.0532, 0.0532,
1.61, 0.5453, 0.0532, 0.0532,
1.615, 0.5471, 0.0533, 0.0533,
1.62, 0.5488, 0.0534, 0.0534,
1.625, 0.5505, 0.0535, 0.0535,
1.63, 0.5521, 0.0535, 0.0535,
1.635, 0.5535, 0.0536, 0.0536,
1.64, 0.5549, 0.0536, 0.0536,
1.645, 0.5561, 0.0537, 0.0537,
1.65, 0.5574, 0.0538, 0.0538,
1.655, 0.5586, 0.0538, 0.0538,
1.66, 0.5595, 0.0538, 0.0538,
1.665, 0.5604, 0.0539, 0.0539,
1.67, 0.5613, 0.0539, 0.0539,
1.675, 0.5621, 0.0539, 0.0539,
1.68, 0.5629, 0.054, 0.054,
1.685, 0.5635, 0.054, 0.054,
1.69, 0.5641, 0.054, 0.054,
1.695, 0.5646, 0.054, 0.054,
1.7, 0.5651, 0.054, 0.054,
1.705, 0.5656, 0.0541, 0.0541,
1.71, 0.5659, 0.0541, 0.0541,
1.715, 0.5661, 0.0541, 0.0541,
1.72, 0.5662, 0.0541, 0.0541,
1.725, 0.5664, 0.0541, 0.0541,
1.73, 0.5666, 0.0541, 0.0541,
1.735, 0.5668, 0.0541, 0.0541,
1.74, 0.5669, 0.0541, 0.0541,
1.745, 0.5669, 0.054, 0.054,
1.75, 0.567, 0.054, 0.054,
1.755, 0.5669, 0.054, 0.054,
1.76, 0.5669, 0.054, 0.054,
1.765, 0.567, 0.054, 0.054,
1.77, 0.5669, 0.054, 0.054,
1.775, 0.5668, 0.054, 0.054,
1.78, 0.5668, 0.054, 0.054,
1.785, 0.5666, 0.054, 0.054,
1.79, 0.5666, 0.054, 0.054,
1.795, 0.5667, 0.054, 0.054,
1.8, 0.5665, 0.0539, 0.0539,
1.805, 0.5664, 0.0539, 0.0539,
1.81, 0.5664, 0.0539, 0.0539,
1.815, 0.5663, 0.0539, 0.0539,
1.82, 0.5662, 0.0539, 0.0539,
1.825, 0.5661, 0.0539, 0.0539,
1.83, 0.5662, 0.0539, 0.0539,
1.835, 0.5664, 0.0539, 0.0539,
1.84, 0.5664, 0.0539, 0.0539,
1.845, 0.5664, 0.0538, 0.0538,
1.85, 0.5664, 0.0538, 0.0538,
1.855, 0.5666, 0.0538, 0.0538,
1.86, 0.5666, 0.0538, 0.0538,
1.865, 0.5667, 0.0538, 0.0538,
1.87, 0.5668, 0.0538, 0.0538,
1.875, 0.567, 0.0538, 0.0538,
1.88, 0.5671, 0.0538, 0.0538,
1.885, 0.5672, 0.0538, 0.0538,
1.89, 0.5674, 0.0538, 0.0538,
1.895, 0.5675, 0.0538, 0.0538,
1.9, 0.5677, 0.0538, 0.0538,
1.905, 0.5679, 0.0538, 0.0538,
1.91, 0.568, 0.0538, 0.0538,
1.915, 0.5682, 0.0538, 0.0538,
1.92, 0.5684, 0.0538, 0.0538,
1.925, 0.5686, 0.0538, 0.0538,
1.93, 0.5688, 0.0538, 0.0538,
1.935, 0.5691, 0.0538, 0.0538,
1.94, 0.5694, 0.0538, 0.0538,
1.945, 0.5697, 0.0538, 0.0538,
1.95, 0.5699, 0.0538, 0.0538,
1.955, 0.5701, 0.0538, 0.0538,
1.96, 0.5706, 0.0539, 0.0539,
1.965, 0.5709, 0.0539, 0.0539,
1.97, 0.5713, 0.0539, 0.0539,
1.975, 0.5717, 0.0539, 0.0539,
1.98, 0.5723, 0.0539, 0.0539,
1.985, 0.5727, 0.0539, 0.0539,
1.99, 0.573, 0.0539, 0.0539,
1.995, 0.5736, 0.0539, 0.0539,
2, 0.5741, 0.054, 0.054,
2.005, 0.5747, 0.054, 0.054,
2.01, 0.5752, 0.054, 0.054,
2.015, 0.5758, 0.054, 0.054,
2.02, 0.5764, 0.054, 0.054,
2.025, 0.5769, 0.054, 0.054,
2.03, 0.5777, 0.0541, 0.0541,
2.035, 0.5783, 0.0541, 0.0541,
2.04, 0.5791, 0.0541, 0.0541,
2.045, 0.5797, 0.0542, 0.0542,
2.05, 0.5804, 0.0542, 0.0542,
2.055, 0.5811, 0.0542, 0.0542,
2.06, 0.5819, 0.0542, 0.0542,
2.065, 0.5826, 0.0543, 0.0543,
2.07, 0.5833, 0.0543, 0.0543,
2.075, 0.5839, 0.0543, 0.0543,
2.08, 0.5847, 0.0543, 0.0543,
2.085, 0.5854, 0.0544, 0.0544,
2.09, 0.5861, 0.0544, 0.0544,
2.095, 0.5867, 0.0544, 0.0544,
2.1, 0.5873, 0.0544, 0.0544,
2.105, 0.5879, 0.0545, 0.0545,
2.11, 0.5886, 0.0545, 0.0545,
2.115, 0.589, 0.0545, 0.0545,
2.12, 0.5895, 0.0545, 0.0545,
2.125, 0.59, 0.0545, 0.0545,
2.13, 0.5905, 0.0545, 0.0545,
2.135, 0.5908, 0.0545, 0.0545,
2.14, 0.5909, 0.0545, 0.0545,
2.145, 0.5912, 0.0545, 0.0545,
2.15, 0.5912, 0.0545, 0.0545,
2.155, 0.5913, 0.0545, 0.0545,
2.16, 0.5911, 0.0545, 0.0545,
2.165, 0.5904, 0.0545, 0.0545,
2.17, 0.5899, 0.0545, 0.0545,
2.175, 0.5887, 0.0544, 0.0544,
2.18, 0.5868, 0.0543, 0.0543,
2.185, 0.5847, 0.0542, 0.0542,
2.19, 0.5825, 0.0541, 0.0541,
2.195, 0.5802, 0.054, 0.054,
2.2, 0.5784, 0.0539, 0.0539,
2.205, 0.5772, 0.0539, 0.0539,
2.21, 0.5764, 0.0538, 0.0538,
2.215, 0.5761, 0.0538, 0.0538,
2.22, 0.5764, 0.0538, 0.0538,
2.225, 0.5769, 0.0538, 0.0538,
2.23, 0.5779, 0.0539, 0.0539,
2.235, 0.579, 0.0539, 0.0539,
2.24, 0.5803, 0.054, 0.054,
2.245, 0.582, 0.054, 0.054,
2.25, 0.5834, 0.0541, 0.0541,
2.255, 0.585, 0.0542, 0.0542,
2.26, 0.5865, 0.0542, 0.0542,
2.265, 0.588, 0.0543, 0.0543,
2.27, 0.5897, 0.0544, 0.0544,
2.275, 0.5911, 0.0544, 0.0544,
2.28, 0.5925, 0.0545, 0.0545,
2.285, 0.5939, 0.0546, 0.0546,
2.29, 0.5952, 0.0546, 0.0546,
2.295, 0.5963, 0.0547, 0.0547,
2.3, 0.5974, 0.0547, 0.0547,
2.305, 0.5985, 0.0548, 0.0548,
2.31, 0.5995, 0.0548, 0.0548,
2.315, 0.6004, 0.0549, 0.0549,
2.32, 0.6012, 0.0549, 0.0549,
2.325, 0.6019, 0.0549, 0.0549,
2.33, 0.6028, 0.055, 0.055,
2.335, 0.6034, 0.055, 0.055,
2.34, 0.6041, 0.055, 0.055,
2.345, 0.6047, 0.055, 0.055,
2.35, 0.6053, 0.055, 0.055,
2.355, 0.6056, 0.0551, 0.0551,
2.36, 0.606, 0.0551, 0.0551,
2.365, 0.6063, 0.0551, 0.0551,
2.37, 0.6065, 0.0551, 0.0551,
2.375, 0.6068, 0.0551, 0.0551,
2.38, 0.6068, 0.0551, 0.0551,
2.385, 0.6067, 0.0551, 0.0551,
2.39, 0.6066, 0.055, 0.055,
2.395, 0.6064, 0.055, 0.055,
2.4, 0.606, 0.055, 0.055,
2.405, 0.6057, 0.055, 0.055,
2.41, 0.6051, 0.0549, 0.0549,
2.415, 0.6043, 0.0549, 0.0549,
2.42, 0.6034, 0.0548, 0.0548,
2.425, 0.6028, 0.0548, 0.0548,
2.43, 0.6016, 0.0547, 0.0547,
2.435, 0.6007, 0.0547, 0.0547,
2.44, 0.5997, 0.0546, 0.0546,
2.445, 0.5983, 0.0545, 0.0545,
2.45, 0.5969, 0.0544, 0.0544,
2.455, 0.596, 0.0544, 0.0544,
2.46, 0.5946, 0.0543, 0.0543,
2.465, 0.5937, 0.0543, 0.0543,
2.47, 0.5926, 0.0542, 0.0542,
2.475, 0.5916, 0.0541, 0.0541,
2.48, 0.5909, 0.0541, 0.0541,
2.485, 0.59, 0.054, 0.054,
2.49, 0.5893, 0.054, 0.054,
2.495, 0.5889, 0.054, 0.054,
2.5, 0.5883, 0.0539, 0.0539;





! ------------ SCHEDULES ------------



Schedule:Constant,
  AllOn,                     !- Name
  Fraction,                  !- Schedule Type Limits Name
  1;                       !- Value




Schedule:Constant,
  AirSpeed 0,                     !- Name
  AnyNumber,                  !- Schedule Type Limits Name